data_crystal

_audit_creation_method 'AiiDA-DDEC plugin'

_cell_length_a         6.87306
_cell_length_b        15.24346
_cell_length_c        15.23849

_cell_angle_alpha     117.73428
_cell_angle_beta     98.65785
_cell_angle_gamma     98.62567

_symmetry_space_group_name_Hall 'P 1'
_symmetry_space_group_name_H-M  'P 1'

loop_
_symmetry_equiv_pos_as_xyz
 'x,y,z'

loop_
_atom_site_label
_atom_site_type_symbol
_atom_site_fract_x
_atom_site_fract_y
_atom_site_fract_z
_atom_site_charge
C          C       0.96956   0.53577   0.10058   0.31025
C          C       0.91580   0.08549   0.53592  -0.13994
C          C       0.86892   0.89955   0.43475   0.30968
C          C       0.83021   0.45010   0.91455  -0.13939
C          C       0.81759   0.17174   0.56776   0.62747
C          C       0.80478   0.48598   0.01394  -0.19242
C          C       0.79097   0.98625   0.47190  -0.19199
C          C       0.75004   0.56762   0.39579   0.62779
C          C       0.68113   0.47200   0.48588  -0.19212
C          C       0.64565   0.39545   0.82836   0.62639
C          C       0.62000   0.53578   0.45026  -0.13912
C          C       0.56608   0.43497   0.53557   0.30923
C          C       0.43392   0.56503   0.46443   0.30917
C          C       0.37999   0.46422   0.54975  -0.13909
C          C       0.35434   0.60455   0.17164   0.62636
C          C       0.31886   0.52801   0.51413  -0.19204
C          C       0.24995   0.43238   0.60421   0.62778
C          C       0.20902   0.01375   0.52810  -0.19193
C          C       0.19521   0.51402   0.98606  -0.19231
C          C       0.18240   0.82826   0.43224   0.62737
C          C       0.16978   0.54991   0.08545  -0.13949
C          C       0.13107   0.10045   0.56525   0.30975
C          C       0.08419   0.91451   0.46408  -0.13991
C          C       0.03043   0.46423   0.89941   0.31015
H          H       0.82261   0.45012   0.47450   0.14297
H          H       0.65193   0.47474   0.02448   0.14334
H          H       0.62769   0.97582   0.44989   0.14343
H          H       0.37230   0.02418   0.55011   0.14331
H          H       0.34806   0.52526   0.97551   0.14326
H          H       0.17739   0.54989   0.52551   0.14288
O          O       0.93169   0.26333   0.62699  -0.61250
O          O       0.93117   0.56729   0.19375  -0.59529
O          O       0.90982   0.53574   0.38061  -0.53512
O          O       0.73708   0.80656   0.37290  -0.59505
O          O       0.69585   0.62737   0.36384  -0.61325
O          O       0.66776   0.36325   0.73666  -0.61226
O          O       0.63596   0.37320   0.56700  -0.59470
O          O       0.62579   0.15505   0.53626  -0.53507
O          O       0.52925   0.61957   0.15482  -0.53472
O          O       0.47074   0.38043   0.84518  -0.53479
O          O       0.37420   0.84495   0.46374  -0.53513
O          O       0.36403   0.62680   0.43301  -0.59479
O          O       0.33223   0.63675   0.26333  -0.61230
O          O       0.30413   0.37263   0.63615  -0.61320
O          O       0.26291   0.19344   0.62710  -0.59515
O          O       0.09017   0.46426   0.61939  -0.53519
O          O       0.06882   0.43271   0.80624  -0.59531
O          O       0.06830   0.73667   0.37301  -0.61240
Co         Co      0.88624   0.40411   0.67089   0.99411
Co         Co      0.78432   0.67107   0.26658   0.99369
Co         Co      0.51810   0.73351   0.40411   0.99477
Co         Co      0.48189   0.26649   0.59589   0.99486
Co         Co      0.21568   0.32893   0.73342   0.99371
Co         Co      0.11374   0.59589   0.32911   0.99425
