
##########################################################################
#               Crystallographic Information Format file
#               Produced by PyCifRW module
#
#  This is a CIF file.  CIF has been adopted by the International
#  Union of Crystallography as the standard for data archiving and
#  transmission.
#
#  For information on this file format, follow the CIF links at
#  http://www.iucr.org
##########################################################################

data_0

loop_
  _atom_site_label
  _atom_site_fract_x
  _atom_site_fract_y
  _atom_site_fract_z
  _atom_site_type_symbol
         C1        0.5637305694249231  0.02350311021473588           0.23653285363418938          C        
         C2        0.4339895987432404  0.9747123308698322  0.7616399143760428  C        
         C3        0.42382884056647596           0.011274083993971187          0.23449281528358473          C        
         C4        0.5736071778771468  0.9854502082808488  0.7633222907307017  C        
         C5        0.3669733284464697  0.07326655602372388           0.22893659691693913          C        
         C6        0.6295614672647202  0.9234972231141337  0.7713297963917841  C        
         H1        0.42645766318987727           0.12963809663166156           0.2264233264929084 H        
         H2        0.5693381095565425  0.8678032937832825  0.7751753516646704  H        
         C7        0.23651413803318566           0.06213150343296478           0.22725502143086077          C        
         C8        0.7602246344680771  0.9340008349004618  0.7740973298879739  C        
         H3        0.19121105339898345           0.10980074021756059           0.2241243632401843 H        
         H4        0.8052491940821187  0.8865789788574793  0.7796543881449457  H        
         C9        0.16185749085396423           0.9888000348999023  0.23080300608404336          C        
         C10       0.8356350694662624  0.006519102563462109          0.7688229011753798 C        
         C11       0.022565840231832612          0.9776367325007529  0.23084629271569584          C        
         C12       0.9752659115956361  0.017759921485619445          0.7704866573678597 C        
         C13       0.21858951013592567           0.926636124561094   0.23579805667021725          C        
         C14       0.7795703744016894  0.06838438154512104           0.7607318502815745 C        
         H5        0.1591128154804306  0.8702073471952037  0.23825156139330383           H        
         H6        0.8396902815531467  0.12402148946242357           0.7567402273101655 H        
         C15       0.34907848515927736           0.9377753144048306  0.23750349676786353          C        
         C16       0.649122139623232   0.058029820763587855          0.7583252790547392 C        
         H7        0.39456634623923337           0.8901441087471769  0.2405969934182638 H        
         H8        0.6039721187991501  0.10551310533030517           0.753280022253446  H        
         C17       0.8757072344335085  0.0783600746084235  0.35777846804838953           C        
         C18       0.12234464270298094           0.9222280496721     0.6418997805566081 C        
         C19       0.9296064911754494  0.11565045693546533           0.428647690139548  C        
         C20       0.06555654639615353           0.8844015628119968  0.5715614594609216 C        
         C21       0.9864317756234816  0.1953151635005608  0.4444888015888654  C        
         C22       0.9986310404860278  0.8063335773986307  0.5583145289149104  C        
         H9        0.9854138058059483  0.230585138650069   0.4050295536642123  H        
         H10       0.9945181958010857  0.7734529372527711  0.5994340292619219  H        
         C23       0.045522891359206105          0.22762241555617307           0.5098592045212933 C        
         C24       0.9370742980895448  0.7729903017502275  0.49363422166078813           C        
         H11       0.09067753553102442           0.28897660352999216           0.5233717236065378 H        
         H12       0.884206175253473   0.7128228239490205  0.4822127120833367  H        
         C25       0.050386305729301556          0.18074981002873747           0.559607582350097  C        
         C26       0.9397106046426049  0.8175891816146962  0.44200813160446745           C        
         C27       0.12273337343116031           0.2144962203091574  0.6283131532217792 C        
         C28       0.8658772610360772  0.7829257236763529  0.3738134134516883  C        
         C29       0.989932693789227   0.10171653994774144           0.5442333583563402 C        
         C30       0.009934124025094313          0.8949189843286881  0.4547619580088276 C        
         H13       0.9931064001768659  0.06604796567790651           0.5832741277841911 H        
         H14       0.01262242798722004           0.9286847215606765  0.41418045616988525          H        
         C31       0.9287821616167256  0.06968373676992819           0.47923157271011235          C        
         C32       0.07366793484201044           0.9277877453039888  0.5191937584139039 C        
         H15       0.882373078103034   0.008512957251549573          0.4664199637768812 H        
         H16       0.12791115780330287           0.9876657034101642  0.5301367407341504 H        
         C33       0.6635243775857366  0.21752695267485028           0.1252699956277308 C        
         C34       0.33635717783704017           0.7812017827068038  0.875715266535874  C        
         C35       0.5538779873759483  0.18127735612540732           0.06992357547355016          C        
         C36       0.4462092727306364  0.8177521486249734  0.9306956214341819  C        
         C37       0.5065582288935937  0.22692585856177006           0.026833915239545543         C        
         C38       0.4942192816017489  0.7722447097296837  0.9736560899242581  C        
         H17       0.5436470637811898  0.28928439523671207           0.0378989356097699 H        
         H18       0.4576953914720702  0.7098493042627056  0.9627176418608122  H        
         C39       0.4186321809154207  0.19194328261400986           0.9692556101055583 C        
         C40       0.582987332252931   0.8074083140236292  0.030788566798915434         C        
         H19       0.38657864853487656           0.22603667341920694           0.9332511809414191 H        
         H20       0.6160456704372177  0.7737757756359631  0.06690704337025712           H        
         C41       0.3733597335900278  0.11109948549629661           0.9559402708762167 C        
         C42       0.6283529199721742  0.8882136174437171  0.0438533362923398  C        
         C43       0.2952434550480644  0.07174790904296625           0.8897599334126964 C        
         C44       0.7066281706159276  0.9268097975907961  0.11017471307266273           C        
         C45       0.41165507789942185           0.06639380570503262           0.002532927878051185         C        
         C46       0.5892924119196024  0.9329252755517992  0.9974182258543518  C        
         H21       0.37286680956357854           0.004212003104391659          0.9926839773115002 H        
         H22       0.6281871851315419  0.995133851754218   0.006925794731429715         H        
         C47       0.5036829410916374  0.10099346635895752           0.05843598531969394          C        
         C48       0.4963435706484127  0.8980887686492667  0.9418750887996322  C        
         H23       0.5394134459461564  0.06649880894955976           0.09288749153778134          H        
         H24       0.46011688456594246           0.9324275971388182  0.907394460434688  H        
         C49       0.028313219190607385          0.2806967861305655  0.22126423662669323          C        
         C50       0.9693762915839393  0.7185817031636981  0.7764763730324519  C        
         C51       0.16445133140406615           0.32434379613677916           0.23112583744883114          C        
         C52       0.8330754147810139  0.6751122254612832  0.7666065817297129  C        
         C53       0.2022727522992528  0.3991545934891323  0.2685816264479121  C        
         C54       0.7947659009861606  0.6003352018471969  0.729080261149593   C        
         H25       0.13150611723285077           0.4245602631313671  0.2891956017187963 H        
         H26       0.8652742137101329  0.5748919055827175  0.7082672915781629  H        
         C55       0.3289868804641457  0.44004982627063455           0.27844825071688084          C        
         C56       0.6680519888427671  0.5594616028527785  0.7194911087658973  C        
         H27       0.3599140433010669  0.49813103005868126           0.3071101088859108 H        
         H28       0.6368069411363816  0.5013221015987914  0.6910183563420309  H        
         C57       0.4182033400045119  0.40709913736377784           0.24985499739027264          C        
         C58       0.5793313248924388  0.5925039791703313  0.7484089419472378  C        
         C59       0.5517240104719212  0.45366511482818317           0.25614978050167764          C        
         C60       0.4461390900868798  0.5460698281412629  0.7428805342274623  C        
         C61       0.3806675575483349  0.3321164118391199  0.21246485223151482           C        
         C62       0.6170859747128999  0.667577792318369   0.785565076306113   C        
         H29       0.45109343728195866           0.3077626631869384  0.1902797861892486 H        
         H30       0.5466921659297002  0.691816510777664   0.8078885183759623  H        
         C63       0.2541753646867435  0.2908005028849935  0.20359805701630934           C        
         C64       0.7435483485754195  0.7088037774342955  0.7942634352760274  C        
         H31       0.22291291731299748           0.2329436109424818  0.17445797294409268          H        
         H32       0.7748077475854089  0.7666684477363704  0.8234046714772415  H        
         C65       0.02427761721988928           0.5646783269500162  0.22469962248397785          C        
         C66       0.9734158086485997  0.4372270779724235  0.7736726215056638  C        
         C67       0.1590944804561223  0.6069860772427353  0.22644994110735803           C        
         C68       0.8389646615598847  0.3942114210410189  0.7720884873451934  C        
         C69       0.20470901826783966           0.6827229209772678  0.26190730212774127          C        
         C70       0.7937642485983878  0.318418930107583   0.7366042362026528  C        
         H33       0.13995368912561906           0.7097566506714035  0.2866618262781326 H        
         H34       0.8586790052012935  0.2914589637844383  0.7118991237015374  H        
         C71       0.33137470466097374           0.7213706281318998  0.2658938314501786 C        
         C72       0.667252550135331   0.27943774890310974           0.7327835205233474 C        
         H35       0.3676870805579633  0.7798040685089813  0.29344116538747134           H        
         H36       0.6311574898401427  0.22094172549046043           0.7053212751892659 H        
         C73       0.4148150722673685  0.6844401223523632  0.23574374517172622           C        
         C74       0.5834997582313897  0.3161023131048792  0.7629322115348294  C        
         C75       0.5513387443436011  0.726237102997379   0.2404957891691751  C        
         C76       0.44707592669065727           0.2741617214387501  0.7580790141216417 C        
         C77       0.36932922177981553           0.6085782392115296  0.20087183068539388          C        
         C78       0.6286645838031953  0.3919194909012135  0.7979245811752315  C        
         H37       0.43490359092261455           0.579695457586405   0.17896961708384354          H        
         H38       0.5630437822944753  0.42056652838453384           0.8200379523341251 H        
         C79       0.24174825550095005           0.570480285193651   0.1952874511883865 C        
         C80       0.756083184871745   0.4302801463644654  0.8034385299386468  C        
         H39       0.20566755164922856           0.5118121645826365  0.16820407969189816          H        
         H40       0.7921141352839133  0.488881855166696   0.8306418289817162  H        
         C81       0.6868325771998908  0.5013056182221095  0.11346695900320972           C        
         C82       0.30834571553089835           0.4982750628799857  0.8852933556737224 C        
         C83       0.5921718325546408  0.5014917542818411  0.05343440657678822           C        
         C84       0.403218112856028   0.49814389239462775           0.9452538239074145 C        
         C85       0.5268262330048746  0.5603684905293901  0.05362638724624772           C        
         C86       0.4686643502597542  0.439325384620525   0.9450198067211915  C        
         H41       0.5514080291244754  0.6069546349247136  0.09625567410540158           H        
         H42       0.44428297361593433           0.39284402742581787           0.902289833637903  H        
         C87       0.5629844709556235  0.44121851888971964           0.9986342741523381 C        
         C88       0.43247559112285205           0.5584688687775933  1.7764964377597793e-05       C        
         H43       0.6154102070321283  0.39658090254026407           0.9986856805398531 H        
         H44       0.38020800390822523           0.6031734847545258  0.9998746813494714 H        
         C89       0.8751782894802451  0.49596156226042587           0.3638565126026412 C        
         C90       0.1268971544702177  0.5022277232674992  0.6336314322610742  C        
         C91       0.9397061706444118  0.4968720165993381  0.43353736702287105           C        
         C92       0.06385503093290613           0.5020079359958489  0.5638463999049136 C        
         C93       0.9219582100298345  0.5486279197666636  0.4869075207792044  C        
         C94       0.08202117339081667           0.45042354968564324           0.510439335914455  C        
         H45       0.859223508671204   0.5861294358714817  0.4762891065374997  H        
         H46       0.14542504559545721           0.41324160062626036           0.5209066863793014 H        
         C95       0.020148365946842224          0.447634411952078   0.4456725140057518 C        
         C96       0.9835277307048486  0.5512820794555426  0.5517080822635856  C        
         H47       0.033163288432003946          0.4078400640636526  0.4038931578667884 H        
         H48       0.9704314916198585  0.5910003329481442  0.5935256637541029  H        
         O1        0.6248993114368471  0.08609965671639146           0.22154111107773963          O        
         O2        0.3700165616356276  0.9110164222987877  0.7733106372528932  O        
         O3        0.6153527822956688  0.9698059059470019  0.25254419357383306           O        
         O4        0.3861113983378482  0.03127730916673177           0.7497883015956096 O        
         O5        0.9720474031185676  0.03254982639564086           0.21692255891395373          O        
         O6        0.02617199640161607           0.9647150132031544  0.788693967945739  O        
         O7        0.9615546638801701  0.9149445561770192  0.24585539120319524           O        
         O8        0.03628566236167567           0.0787618154621497  0.7528183002577772 O        
         O9        0.8621320791772151  0.1221271496382366  0.31438682369166254           O        
         O10       0.12802814317728578           0.8789728391438638  0.6863610700491968 O        
         O11       0.8496674351255183  0.004614804152751026          0.34498319543789907          O        
         O12       0.15800768848108915           0.9959791171151892  0.6533032311747392 O        
         O13       0.13921747313873842           0.2865189632857578  0.6479432109662807 O        
         O14       0.8453731270385515  0.7102705459092942  0.3561178744051157  O        
         O15       0.16454949489840318           0.16888314157201004           0.6632504438888467 O        
         O16       0.8273946282159671  0.8285086649842527  0.33766478483713475           O        
         O17       0.7441591493865762  0.17795710604386034           0.13807313549536568          O        
         O18       0.256373224597005   0.8211612559710093  0.8625662159199246  O        
         O19       0.6716965095538074  0.2857166819297423  0.15440464020677871           O        
         O20       0.32693224964548656           0.7125757517048766  0.8472520321797904 O        
         O21       0.2677236281200711  0.11401053530322545           0.8471996324372456 O        
         O22       0.7296478123826635  0.8839256387397726  0.15301030465279186           O        
         O23       0.26577797854593266           0.9978827587093456  0.8785933947298802 O        
         O24       0.7400953665652701  0.0006374707270162228         0.12124129049502012          O        
         O25       0.004128700732010104          0.20733528349763827           0.21416656306901105          O        
         O26       0.9941464783425353  0.7920083003730012  0.7863562735715448  O        
         O27       0.944244469193406   0.31958239973825303           0.22179159783877753          O        
         O28       0.0533035792975667  0.6797457524009641  0.7733046980500528  O        
         O29       0.5736308485075157  0.5264546053740417  0.27489935086823036           O        
         O30       0.42345130315489216           0.4732343132816597  0.7249375834350775 O        
         O31       0.6356985522947423  0.4187759966883599  0.2406657648552405  O        
         O32       0.36284951688772665           0.5816202514652572  0.7584220396697189 O        
         O33       0.9892731132199203  0.49329504592537854           0.1994524709230551 O        
         O34       0.007992684167861912          0.5086141775595276  0.7991666266169127 O        
         O35       0.9517263140640128  0.6027168168393866  0.2504829914781142  O        
         O36       0.04597071999232346           0.39973703401429994           0.7473686907657122 O        
         O37       0.5776620232395615  0.7997062979513229  0.24860072709901548           O        
         O38       0.4205483563564037  0.20068607578681916           0.7497077629963542 O        
         O39       0.6334147627313238  0.6865336327350493  0.2349961267770348  O        
         O40       0.36509082863150855           0.31396295886349995           0.7638493346231698 O        
         O41       0.7365207727208313  0.4437731162316484  0.11503878599992684           O        
         O42       0.26042552223152016           0.5564259417705393  0.8832498562929477 O        
         O43       0.7093700305484251  0.5582181658084874  0.16113096983543687           O        
         O44       0.2839839614247932  0.4405761371077182  0.8381967256813982  O        
         O45       0.8875755604037221  0.44468092462562775           0.317333271886659  O        
         O46       0.11374100894184451           0.5530083518143144  0.680373981782072  O        
         O47       0.8135624816944456  0.5468994253368077  0.35515562104349546           O        
         O48       0.18768301620159603           0.45089221183076755           0.6423352904562444 O        
         Tm1       0.8313898138010793  0.10487807561484579           0.20149038688076248          Tm       
         Tm2       0.1679046264517038  0.8937341677537058  0.7991030908241868  Tm       
         Tm3       0.8142926372893489  0.3981763368220639  0.20724361845619213           Tm       
         Tm4       0.1843430056576133  0.6020879494589145  0.7901613402705671  Tm       
         Tm5       0.7593265065770483  0.6109801183407466  0.2703653632324476  Tm       
         Tm6       0.2374047181002457  0.38865479905017275           0.7291035585250937 Tm       
         Tm7       0.7573003572794514  0.899107872415546   0.26582513577453903           Tm       
         Tm8       0.24211340954396138           0.10031546640168294           0.7344888125383688 Tm
_cell_angle_alpha                       97.35662868202759
_cell_angle_beta                        97.65853832647997
_cell_angle_gamma                       102.9724490865001
_cell_length_a                          10.949471905713
_cell_length_b                          18.005541195434606
_cell_length_c                          20.41307186190705
loop_
  _symmetry_equiv_pos_as_xyz
         'x, y, z' 
_symmetry_int_tables_number             1
_symmetry_space_group_name_H-M          'P 1'