
##########################################################################
#               Crystallographic Information Format file
#               Produced by PyCifRW module
#
#  This is a CIF file.  CIF has been adopted by the International
#  Union of Crystallography as the standard for data archiving and
#  transmission.
#
#  For information on this file format, follow the CIF links at
#  http://www.iucr.org
##########################################################################

data_0

loop_
  _atom_site_label
  _atom_site_fract_x
  _atom_site_fract_y
  _atom_site_fract_z
  _atom_site_type_symbol
         Zn1       0.8246245747257117  0.9452367776303973  0.5611181193745788  Zn       
         Zn2       0.1753754051759878  0.44523677012802737           0.9388818958148449 Zn       
         Zn3       0.17537544284561024           0.054763224040952733          0.4388818837128964 Zn       
         Zn4       0.8246245790520118  0.5547632140791326  0.061118152084269475         Zn       
         H1        0.8889729439256501  0.20127247547138885           0.7905014870072847 H        
         H2        0.2749927923016516  0.3028712515309783  0.6803638124257027  H        
         H3        0.11102703135934412           0.7012724443668255  0.7094984793211647 H        
         H4        0.7250072532650833  0.802871275485538   0.819636249857638   H        
         H5        0.11102710221559019           0.798727544675696   0.20949852613816258          H        
         H6        0.7250072101180236  0.6971287490455482  0.3196361813157349  H        
         H7        0.8889729210967628  0.2987275379159803  0.2905015167302394  H        
         H8        0.2749927376981098  0.19712874493091156           0.18036378715887874          H        
         C1        0.9743117107910103  0.20246402054091517           0.739474075061612  C        
         C2        0.1702001690501234  0.25277482600540324           0.6828074283785095 C        
         C3        0.4712907320344771  0.9697614642834741  0.4145677135198306  C        
         C4        0.02568825206393167           0.7024640505437597  0.7605258818242399 C        
         C5        0.8297998823960179  0.7527748503209845  0.8171925716012101  C        
         C6        0.5287097318978209  0.4697614815221213  0.08543242294264337           C        
         C7        0.02568821508108494           0.797535929631676   0.26052591589075874          C        
         C8        0.8297998195642862  0.74722512249971    0.31719249548738704           C        
         C9        0.5287090205462552  0.03023855777953146           0.5854322137288789 C        
         C10       0.9743117582926576  0.29753596494573925           0.23947408069413084          C        
         C11       0.17020016620694625           0.24722512861533888           0.18280745427792364          C        
         C12       0.47129144950112956           0.5302385810171355  0.9145678871544308 C        
         N1        0.9688719849063632  0.11196309314071866           0.6318626524950612 N        
         N2        0.09587788985819229           0.14411812657864698           0.5958984577304444 N        
         N3        0.09834503533746485           0.2927166731790315  0.7743846414125382 N        
         N4        0.031128058278461015          0.611963065829628   0.8681373787210117 N        
         N5        0.9041221815918622  0.6441181298813325  0.9041015910448447  N        
         N6        0.901655011795909   0.7927166273890519  0.7256153784193298  N        
         N7        0.031128053128403624          0.8880369424756427  0.3681373822113559 N        
         N8        0.9041221574196736  0.8558819248631648  0.40410157928344903           N        
         N9        0.9016550294333047  0.7072834042961699  0.22561540062326874           N        
         N10       0.9688719858487779  0.38803690893760334           0.1318626610503461 N        
         N11       0.0958778564051659  0.35588190414209153           0.0958984252247494 N        
         N12       0.09834500017382164           0.20728335264738118           0.2743846231820271 N        
         O1        0.585007567640195   0.9270714920998542  0.38219935082474255           O        
         O2        0.31629756475319143           0.967477980012227   0.31910070558522735          O        
         O3        0.4149922695945685  0.42707143122341573           0.11780070300197934          O        
         O4        0.683702175431553   0.46747801920366033           0.1808992343338612 O        
         O5        0.414992525334411   0.07292847674648689           0.6178006262666438 O        
         O6        0.6837025912512851  0.032522027503696684          0.6808993722373025 O        
         O7        0.5850072950248064  0.5729283632664011  0.8821994338115837  O        
         O8        0.3162972365171303  0.5325220785481486  0.8191005973480222  O
_cell_angle_alpha                       89.99999845288696
_cell_angle_beta                        117.99026495882931
_cell_angle_gamma                       90.00000278708505
_cell_length_a                          9.0581381106959
_cell_length_b                          9.969005316001113
_cell_length_c                          9.367261550088573
loop_
  _symmetry_equiv_pos_as_xyz
         'x, y, z' 
_symmetry_int_tables_number             1
_symmetry_space_group_name_H-M          'P 1'