
##########################################################################
#               Crystallographic Information Format file
#               Produced by PyCifRW module
#
#  This is a CIF file.  CIF has been adopted by the International
#  Union of Crystallography as the standard for data archiving and
#  transmission.
#
#  For information on this file format, follow the CIF links at
#  http://www.iucr.org
##########################################################################

data_0

loop_
  _atom_site_label
  _atom_site_fract_x
  _atom_site_fract_y
  _atom_site_fract_z
  _atom_site_type_symbol
         Al1       0.7394300225194459  0.004396809042909472          0.25129243267685925          Al       
         Al2       0.23231181587883307           0.0025069941601639253         0.7492625200866192 Al       
         Al3       0.7325560534660107  0.0024651182992196288         0.7477141736148807 Al       
         Al4       0.23971945532271088           0.004349241480433093          0.24662129428582666          Al       
         C1        0.8347842768401901  0.7122708778127482  0.6136049321308972  C        
         C2        0.4743932441109041  0.885858065130002   0.19709269652479733           C        
         C3        0.4937237929577817  0.6575455346480481  0.0202026480402218  C        
         C4        0.5178825146374703  0.5814767844477068  0.09189676612320795           C        
         C5        0.5038648868361764  0.581150336336128   0.045295976930657594         C        
         C6        0.48366039632002966           0.8075810909657442  0.16991450531682356          C        
         C7        0.9650995229498259  0.8877379106245239  0.6952972809968986  C        
         C8        0.010072747952002241          0.6590649121410069  0.5208662636158387 C        
         C9        0.9990848584237247  0.6602007845736964  0.6184078240897279  C        
         C10       0.011458767823868139          0.581319005828203   0.5923854143526429 C        
         C11       0.007134315589053991          0.5818613882621474  0.5457172113764166 C        
         C12       0.9743174374974907  0.8089131628453431  0.668655965153612   C        
         C13       0.4567642114756785  0.8805998970795791  0.7982107983342692  C        
         C14       0.4810474871340217  0.6562085155775197  0.97538147345817    C        
         C15       0.46473576790684695           0.5760052218820679  0.9046822781323886 C        
         C16       0.48069849082640437           0.5784804068652919  0.9512066876778695 C        
         C17       0.45720634486045153           0.8022955452758196  0.8256658309670075 C        
         C18       0.9673616977917713  0.8856947289988378  0.3007710623434294  C        
         C19       0.00967897167482743           0.6587541816615986  0.4759261641886386 C        
         C20       0.010146229019556927          0.5800491298962541  0.4048430043817536 C        
         C21       0.006335106243399388          0.5812023702527015  0.4515350405242404 C        
         C22       0.9748097776448148  0.806795737661466   0.32752859137478907           C        
         C23       0.5044279626168456  0.11637728461029674           0.8002339698421544 C        
         C24       0.5026010866017083  0.3449062061704715  0.9771226905536164  C        
         C25       0.47616500825871316           0.42079714090325576           0.9054953108138006 C        
         C26       0.4919166654445527  0.42130409234332966           0.952055691501867  C        
         C27       0.49956540883296047           0.19431385805829426           0.8277221487678071 C        
         C28       0.014655141938014538          0.12137179022259711           0.2987509397162868 C        
         C29       0.029413001801429275          0.3473200395384368  0.4767034815129769 C        
         C30       0.022145781095411453          0.4249820230431763  0.4052420671125545 C        
         C31       0.017316699962383338          0.42403601979703914           0.45192910210411014          C        
         C32       0.018614741687436043          0.19869757280074626           0.32675912380732197          C        
         C33       0.5211984911568027  0.12199028244436091           0.1993572963525102 C        
         C34       0.5153222622538354  0.34624797335224605           0.021939764164156484         C        
         C35       0.6196000959578942  0.7903327982681916  0.8538613051485444  C        
         C36       0.5297407367699231  0.42628733337158115           0.09264667046039926          C        
         C37       0.5153000663751898  0.4239886257581756  0.04609837914873016           C        
         C38       0.5263041657254164  0.1999930019416614  0.17166656800410718           C        
         C39       0.010912593133149073          0.12278844161715675           0.7001725093083896 C        
         C40       0.030023135722089412          0.3476512315044599  0.5216686378483957 C        
         C41       0.023551934186075943          0.4262533921622803  0.5927870561820993 C        
         C42       0.018283838006042396          0.4246916484219644  0.5461249047587332 C        
         C43       0.016202998725565854          0.2004190230689822  0.6721904108969982 C        
         C44       0.5040285101712945  0.5019346081341315  0.022194230923274418         C        
         C45       0.5355700347713461  0.5046247978162519  0.11421755786063728           C        
         C46       0.01086152780364307           0.5030495158282757  0.5224008331870216 C        
         C47       0.024347244238989263          0.5041983575683439  0.6146733313922252 C        
         C48       0.49240392781610437           0.5005704210716156  0.9751242817754356 C        
         C49       0.45799068642327445           0.4975853527614734  0.8831700664320854 C        
         C50       0.010386042336712512          0.50272215824513    0.4752682501563797 C        
         C51       0.02265569466967081           0.5025965023555544  0.3828986800932975 C        
         C52       0.6202678713291444  0.7178578518601934  0.8800667286953131  C        
         C53       0.46109061101751025           0.6544693872010974  0.8778588573579428 C        
         C54       0.32921478458383363           0.7846972192384853  0.14021397917754258          C        
         C55       0.14054568417556748           0.7558343910436407  0.322262746176882  C        
         C56       0.14981692202240957           0.6814262957756292  0.3467951710971937 C        
         C57       0.33373730203096197           0.2455018531864039  0.8245678175578595 C        
         C58       0.32830763799070556           0.3196898134061861  0.8493504271341209 C        
         C59       0.856803215912936   0.21161612353993145           0.3560238950129088 C        
         C60       0.8606585068997221  0.2838164487998978  0.38243508526906894           C        
         C61       0.022793678978080205          0.34579522868110435           0.3790140750726105 C        
         C62       0.6890289756954151  0.261241926700449   0.1741198446529474  C        
         C63       0.6893438514004793  0.33494968013943527           0.14863907888684344          C        
         C64       0.3431367302882565  0.7126216580288266  0.1141094856707237  C        
         C65       0.17877469633664547           0.26170272835328784           0.6748176453418533 C        
         C66       0.18005712940690546           0.33519489198084235           0.6491801032282694 C        
         C67       0.6584968597281738  0.2171641399196946  0.8562939423061502  C        
         C68       0.6478143170027503  0.2892996444048523  0.8825067412106385  C        
         C69       0.48323700256851726           0.34176202103437714           0.8793005749537928 C        
         C70       0.5075227038601468  0.6602713057664058  0.11815395692164313           C        
         C71       0.18234813957304766           0.25953266208227393           0.32357161000649703          C        
         C72       0.18246473727691864           0.33305483741542485           0.34900605794149947          C        
         C73       0.3649835151669153  0.21305305167833785           0.14333875938630244          C        
         C74       0.3685556132523561  0.2855516783018122  0.11706709406477529           C        
         C75       0.5305746785786812  0.34763622567854063           0.1194169895033079 C        
         C76       0.8566238606947484  0.21298861521303925           0.6433409839472907 C        
         C77       0.8617678778919682  0.28510314809606085           0.6167136951500692 C        
         C78       0.022992110812339768          0.34742412660819016           0.6194575811371466 C        
         C79       0.6486474610769012  0.7561606432556089  0.1740619926417821  C        
         C80       0.6581958459752717  0.6823486149323212  0.14909795774532153           C        
         C81       0.13937368208118964           0.7578051074612668  0.6735056023734493 C        
         C82       0.14904292985368897           0.6830473697833789  0.6493422878339358 C        
         C83       0.29746100093391115           0.7396336661971956  0.8233507789330574 C        
         C84       0.819999958746868   0.7850595147018095  0.6391215114069749  C        
         C85       0.3012306278169054  0.6659625383699819  0.8487453631754796  C        
         C86       0.8194311813288759  0.783143757840726   0.3579301839866334  C        
         C87       0.8335488460431136  0.7106260052100237  0.383743848706929   C        
         C88       0.99839045749095    0.6586659648534425  0.3784734623815255  C        
         H1        0.9734907928219411  0.9635568632254736  0.19591989252511743           H        
         H2        0.49682048991063726           0.7178969247516993  0.03739844051607676          H        
         H3        0.017338703288485916          0.7190962003085777  0.5384060842643771 H        
         H4        0.4704726448907852  0.7153581063341884  0.9574438186583049  H        
         H5        0.27549069420377237           0.6427826945048479  0.6536468982190927 H        
         H6        0.016508664354247436          0.7185175391011716  0.45798923938085806          H        
         H7        0.4997088869528802  0.2846121807000733  0.9598711622691459  H        
         H8        0.04240730367420941           0.2880456096416516  0.45899855834125625          H        
         H9        0.5258463645022113  0.2871454268098668  0.0399262051173759  H        
         H10       0.043770418490235115          0.28866230952606364           0.5395955179478944 H        
         H11       0.7441756729909014  0.838525651011196   0.8551153453506516  H        
         H12       0.5422781498513195  0.5053839609774655  0.14996587515791956           H        
         H13       0.02499394548614844           0.5044291538377552  0.6504733290919441 H        
         H14       0.4495199744086739  0.4966153214235821  0.8474457637055735  H        
         H15       0.02327315615454976           0.5022932104222797  0.34709389213855296          H        
         H16       0.17753852294575262           0.6173702275075533  0.8467800230653707 H        
         H17       0.2604357040663848  0.774885049819714   0.29867314046475446           H        
         H18       0.7146298994373419  0.692885633024726   0.40778801626339495           H        
         H19       0.21112556765247448           0.22668748286791524           0.8024385488149294 H        
         H20       0.7699458458413513  0.30655865420829764           0.9050137687157825 H        
         H21       0.20037215432476263           0.8241120843851919  0.1374008102246672 H        
         H22       0.7292973608543395  0.16466067685023122           0.35754696600621244          H        
         H23       0.30846302006561754           0.3806065041273026  0.34627385906502106          H        
         H24       0.8131156428519217  0.2504707365339653  0.19619779495454412           H        
         H25       0.24362054921784693           0.29542647299667824           0.09506583183596704          H        
         H26       0.3019780988122623  0.25114002454951123           0.697167640771467  H        
         H27       0.738469538359799   0.29456588635599307           0.5942130709448151 H        
         H28       0.7880033447787654  0.17783084089307938           0.8580643889924087 H        
         H29       0.20135538951462786           0.3601006537341939  0.8462400291545921 H        
         H30       0.3071757462317843  0.24859169074674248           0.30090683103755655          H        
         H31       0.7357071712070398  0.29363406064816905           0.40526553109144975          H        
         H32       0.23792469706701666           0.16592956283634963           0.14246431258552372          H        
         H33       0.7849628595666808  0.6420701670654804  0.15293864133168933           H        
         H34       0.8150440552416384  0.3826026243986148  0.15069030295919456           H        
         H35       0.7298348853416471  0.16574813854858414           0.6422896286001035 H        
         H36       0.3051757976322886  0.38306037890247246           0.6514997234207817 H        
         H37       0.7676849098961213  0.7742398285127052  0.19719064316833668           H        
         H38       0.22371655070381077           0.695379075205808   0.09093864188020892          H        
         H39       0.2581651651611091  0.7769300485720102  0.6965132630053577  H        
         H40       0.7166032855225813  0.6943108995230511  0.5902572847030138  H        
         H41       0.1722151693602484  0.7490926969136328  0.8013767286356517  H        
         H42       0.7460381533954041  0.709217801452401   0.9020258909430923  H        
         H43       0.6904247071304435  0.8224601205673947  0.3616308052038548  H        
         H44       0.27711045202049356           0.6414181579015653  0.34219367573930204          H        
         H45       0.6909818785247736  0.8242694341144765  0.6359158782419152  H        
         H46       0.46610995353929324           0.9637904561631063  0.3021709866076315 H        
         H47       0.966901506649111   0.9576874516552599  0.8009681513177026  H        
         H48       0.47612271128149397           0.9704738489841302  0.6936836796275785 H        
         O1        0.6440129023939104  0.9254547582606475  0.2054833760420005  O        
         O2        0.2871725560050865  0.8999215157916888  0.7823908568969158  O        
         O3        0.7934624230294924  0.9070725414171016  0.28840682288948255           O        
         O4        0.6754711680824033  0.0974978572086845  0.7842321685437253  O        
         O5        0.17960475295905148           0.10391867148600918           0.2793638085252252 O        
         O6        0.35294745032155567           0.07745233036522269           0.2016925957743612 O        
         O7        0.8419608089206221  0.07912911682311577           0.7035778635599684 O        
         O8        0.33537052526177835           0.07420584383594088           0.7949431954478977 O        
         O9        0.8460498713575727  0.07738876031542653           0.2963302067112299 O        
         O10       0.6840219874012698  0.10432525298771463           0.21848097659105647          O        
         O11       0.17535265656083288           0.10461040776476453           0.7184867972996126 O        
         O12       0.2990297611445186  0.9072042612164115  0.20964537616319065           O        
         O13       0.13420249570573878           0.9293019069861652  0.7019457715445744 O        
         O14       0.7906223000065217  0.9073599625485983  0.7092886274820813  O        
         O15       0.6267199665985956  0.923034410818737   0.7928854875383239  O        
         O16       0.13789674802510077           0.9256870691329749  0.2924796172048808 O        
         O17       0.4829505265300278  0.0006423504587755868         0.27661619969190127          O        
         O18       0.9785063471076872  0.9962717660902842  0.7760589698476752  O        
         O19       0.4827720531246096  0.0029644665158466447         0.7207441234914431 O        
         O20       0.9866959853058893  0.0007905558930691425         0.22122816766950745          O
_cell_angle_alpha                       89.90141705776578
_cell_angle_beta                        89.1197107989102
_cell_angle_gamma                       93.43352633808854
_cell_length_a                          6.5974198624791
_cell_length_b                          15.775036909084896
_cell_length_c                          30.40173369145623
loop_
  _symmetry_equiv_pos_as_xyz
         'x, y, z' 
_symmetry_int_tables_number             1
_symmetry_space_group_name_H-M          'P 1'