
##########################################################################
#               Crystallographic Information Format file
#               Produced by PyCifRW module
#
#  This is a CIF file.  CIF has been adopted by the International
#  Union of Crystallography as the standard for data archiving and
#  transmission.
#
#  For information on this file format, follow the CIF links at
#  http://www.iucr.org
##########################################################################

data_0

loop_
  _atom_site_label
  _atom_site_fract_x
  _atom_site_fract_y
  _atom_site_fract_z
  _atom_site_type_symbol
         Zn1       0.4163116827016655  0.5001630308862636  0.5000589961577561  Zn       
         Zn2       0.5840021292010822  0.4995798373878657  0.49708939169253247           Zn       
         H1        0.3706506023585511  0.5096054867439312  0.27825434349904415           H        
         H2        0.6312217939209994  0.11995084572263492           0.4948326010207903 H        
         H3        0.37126609028576996           0.12475524274917911           0.503869741669298  H        
         H4        0.6308164079699162  0.8781551178002631  0.5030996457849604  H        
         H5        0.3738134519031133  0.7369403285592867  0.49739793660390935           H        
         H6        0.6327355882445144  0.2594103521929914  0.4939305501191212  H        
         H7        0.37435967316211954           0.26426548473575795           0.5032925979931292 H        
         H8        0.6319603321522501  0.738758413436963   0.5022957009185428  H        
         H9        0.13790869282369583           0.4462234190698993  0.4023155540834424 H        
         H10       0.8618251732452548  0.602192912214612   0.557675045947913   H        
         H11       0.1320340996092232  0.551288433122667   0.6017016732910733  H        
         H12       0.6252378580983909  0.490599446632413   0.7132314379744922  H        
         H13       0.8687326896979186  0.39534232913734857           0.4443399839390157 H        
         H14       0.2894400614176697  0.4502657194517154  0.405441594063468   H        
         H15       0.710453922809271   0.5985652836029078  0.5514398729482863  H        
         H16       0.28385962029182366           0.5485361377514528  0.5967168577658868 H        
         H17       0.7168794159818671  0.3997248244352274  0.4453674280462251  H        
         H18       0.36594154312988114           0.5089037952628296  0.7228486459822511 H        
         H19       0.6289417757436686  0.4922316178138744  0.2787647864353586  H        
         H20       0.3673570609926301  0.5130312418136965  0.09808420575009451           H        
         H21       0.6374167728472051  0.4940137208466606  0.8940334812367416  H        
         H22       0.3611177731505368  0.5131170734022411  0.9040268975512411  H        
         H23       0.6908706921303172  0.4873609328921612  0.17905040654144433           H        
         H24       0.3711389880885139  0.8764327260157221  0.498172902596769   H        
         C1        0.5050161587343458  0.3535938788491495  0.49753741552398023           C        
         C2        0.8321120794919324  0.5566675315249672  0.5320131839972307  C        
         C3        0.1645764244668612  0.5283243407106425  0.5574472576433296  C        
         C4        0.8359280792393424  0.44117007269679415           0.46864605866989173          C        
         C5        0.25155818128122903           0.4712528342157094  0.4476428613186893 C        
         C6        0.7485122543689311  0.5548980782584877  0.5290211624462698  C        
         C7        0.24841015140188982           0.5272667735690092  0.5549514433257751 C        
         C8        0.7521690304616226  0.4434210316788827  0.46868618310395455           C        
         C9        0.12237052453932268           0.49883168992242877           0.5020247979588204 C        
         C10       0.8778516251158649  0.49889926851943844           0.500953675654586  C        
         C11       0.0368930433540006  0.4987735454688685  0.5022147052721142  C        
         C12       0.5040163449530094  0.6460333317015984  0.4992839908511916  C        
         C13       0.9632674998827512  0.4988356413419838  0.5019146326799928  C        
         C14       0.4981843867296109  0.5000620012599276  0.3634079728626405  C        
         C15       0.49445783389762654           0.4997535792682814  0.6334471530497755 C        
         C16       0.4282639859347887  0.5057012316036831  0.25073126781188937           C        
         C17       0.5693769644115428  0.49508125708645084           0.7432603333893119 C        
         C18       0.4230167994562641  0.5054795995208278  0.7485966227580297  C        
         C19       0.5737018061930038  0.4959547335336105  0.2500701355370566  C        
         C20       0.4296623783125851  0.506745093431015   0.1789905661021098  C        
         C21       0.5718519793073272  0.49604136287030626           0.8146613787523737 C        
         C22       0.42354145283637396           0.5066575536782888  0.8200227988445796 C        
         C23       0.5029797413372541  0.7295080907110352  0.49995948519267397           C        
         C24       0.5767177241324699  0.496197123806623   0.17873514964420242           C        
         C25       0.5046714381562796  0.501994727128708   0.14012447622362112           C        
         C26       0.49840464924704825           0.502042923348543   0.8553330615813347 C        
         C27       0.49974400631088184           0.5005472999867954  0.28616228602577287          C        
         C28       0.49553416938771466           0.499974524612468   0.7106494521552781 C        
         C29       0.49984110783389923           0.5035187729171186  0.9292167760389345 C        
         C30       0.5051422386125571  0.5033828781434696  0.06547104566060896           C        
         C31       0.4280627667937268  0.846152859883183   0.4991615615525754  C        
         C32       0.5751731380576821  0.15167759867370814           0.4964907149921633 C        
         C33       0.4283379025875075  0.15436808122961537           0.5016307588911363 C        
         C34       0.5036662474462049  0.270118798799112   0.4981743499884634  C        
         C35       0.5747254911948172  0.8471154026060245  0.5019194891085185  C        
         C36       0.42945115652913346           0.7686511498570642  0.498781035355261  C        
         C37       0.576072397229627   0.22915338374945518           0.49588473077759887          C        
         C38       0.42994898470090026           0.2318586227490672  0.5012012810993606 C        
         C39       0.5754078640099912  0.7696281625631457  0.5015923099195133  C        
         C40       0.5008540305898311  0.8868486684336713  0.5006163592159177  C        
         C41       0.5010944410417778  0.11282608522389731           0.4993115534283381 C        
         C42       0.5001225620115483  0.9657443891301882  0.5004212656417053  C        
         C43       0.5001654634837905  0.0339425378779498  0.49991990531095915           C        
         C44       0.16786833710570592           0.4695022527048906  0.4461683300062083 C        
         N1        0.5762613504301507  0.5005324884017278  0.027915754796679893         N        
         N2        0.42975257453155213           0.5092860694830149  0.966826408467833  N        
         N3        0.5727227117471434  0.500506173691074   0.9611115143594721  N        
         N4        0.4327344785045676  0.509088962248863   0.0341249241617981  N        
         N5        0.29126401378893524           0.499520380809887   0.5010136170594011 N        
         N6        0.7091193530731325  0.499379662318677   0.4979591443035285  N        
         O1        0.43711133486942894           0.3871682683725973  0.5029588299684283 O        
         O2        0.6454277441195749  0.4911626863562837  0.8427894329428653  O        
         O3        0.3511261058266098  0.5124776504547657  0.8536271784894495  O        
         O4        0.6496921751625568  0.4907494288259057  0.14450545762386163           O        
         O5        0.5727828627831639  0.6137933314344334  0.5023265268197312  O        
         O6        0.4361508923582773  0.6133378030161392  0.4955705059394203  O        
         O7        0.5738788545004977  0.3849483795752373  0.4916498663652425  O        
         O8        0.4292270748667887  0.49640471636905714           0.3936249381691723 O        
         O9        0.5624512943911892  0.4939276654974304  0.6019052325868294  O        
         O10       0.4258895030641024  0.5055181889668987  0.6057602656267391  O        
         O11       0.5661859077027108  0.5034469701356099  0.3920517362522833  O        
         O12       0.3571884565756745  0.5125027294725079  0.14932398652212897           O
_cell_angle_alpha                       89.70214273589112
_cell_angle_beta                        88.42808688836925
_cell_angle_gamma                       89.71693877257069
_cell_length_a                          16.580913755532
_cell_length_b                          17.936294081754625
_cell_length_c                          19.50663831453223
loop_
  _symmetry_equiv_pos_as_xyz
         'x, y, z' 
_symmetry_int_tables_number             1
_symmetry_space_group_name_H-M          'P 1'