
##########################################################################
#               Crystallographic Information Format file
#               Produced by PyCifRW module
#
#  This is a CIF file.  CIF has been adopted by the International
#  Union of Crystallography as the standard for data archiving and
#  transmission.
#
#  For information on this file format, follow the CIF links at
#  http://www.iucr.org
##########################################################################

data_0

loop_
  _atom_site_label
  _atom_site_fract_x
  _atom_site_fract_y
  _atom_site_fract_z
  _atom_site_type_symbol
         Zr1       0.11693177158462598           0.8816314293599221  0.8811506033502057 Zr       
         Zr2       0.87782857383518    0.12085414598546189           0.12041673350091606          Zr       
         Zr3       0.11696697134530529           0.12089470192888696           0.8811088216058914 Zr       
         Zr4       0.8777945215044313  0.8815983240536445  0.12047530203490171           Zr       
         Zr5       0.11710979892512689           0.8816503019534373  0.12026977997279399          Zr       
         Zr6       0.8777163447720109  0.12081106569300709           0.8812418405453057 Zr       
         H1        0.13272379392978736           0.5963377689952619  0.8458596049005503 H        
         H2        0.5901890738112292  0.1389748616206181  0.4231011406090429  H        
         H3        0.4197179037856727  0.8485063297044443  0.5935627825729627  H        
         H4        0.8444411800861037  0.4236912272028021  0.13834143571860943           H        
         H5        0.13777725116716877           0.4207398927996036  0.5910068297318362 H        
         H6        0.5889887782947889  0.849631500087911   0.13960094473596082           H        
         H7        0.42082952667177376           0.13795878461491828           0.8468755710370139 H        
         H8        0.843704945739192   0.5954087039009616  0.42409276241594984           H        
         H9        0.136781088827941   0.8499291566071419  0.42148388902801015           H        
         H10       0.5879524586349134  0.42094543904929727           0.8504220239157002 H        
         H11       0.42185243680748263           0.5965263236852314  0.13589074425480638          H        
         H12       0.8429697767158675  0.1370698791437836  0.5953471362119839  H        
         H13       0.1378685891873594  0.5913820333559622  0.42042642367530564           H        
         H14       0.5915127085260934  0.13773739389507625           0.847032222752215  H        
         H15       0.41832423550836    0.8498501422900203  0.1394455462323274  H        
         H16       0.8435944839391686  0.4247505127066382  0.594700572067903   H        
         H17       0.13278482474503242           0.4257060058709536  0.8458962393293896 H        
         H18       0.5904832423731868  0.8483641046467498  0.42316763182298234           H        
         H19       0.41948014774479475           0.13906222390346154           0.5935564657594303 H        
         H20       0.8443597764396659  0.5943503228893343  0.13826333123564033           H        
         H21       0.13650730353537155           0.8498771289253829  0.5922616627792692 H        
         H22       0.5924881458458247  0.42584830751507624           0.13600082624713533          H        
         H23       0.4173149673536872  0.5916123646671912  0.8503233845565508  H        
         H24       0.8432035598628176  0.13711962596946523           0.4245819551642503 H        
         H25       0.0914774635689137  0.7188346901162104  0.0947131291131291  H        
         H26       0.714989119634529   0.09529397738298143           0.09511424874329488          H        
         H27       0.09139887979566702           0.0951738734778413  0.7184197014678921 H        
         H28       0.09144742130947588           0.09558053809863568           0.09479046781112915          H        
         C1        0.07022626460580843           0.5577420869471793  0.9091980675047007 C        
         C2        0.552113287388802   0.07596550430724967           0.461330859065128  C        
         C3        0.4579533008286938  0.9113583858191886  0.5554876332144757  C        
         C4        0.9068651732371927  0.4623528534116579  0.07491932927584294           C        
         C5        0.07396628778604505           0.45992111724445095           0.5537149810708621 C        
         C6        0.5514035116432146  0.912006100922414   0.07611293101169526           C        
         C7        0.4585626913063368  0.07542890691030815           0.910218188092844  C        
         C8        0.9073351969504395  0.5563807391836192  0.4615763719938298  C        
         C9        0.07303490921548796           0.9120419780505058  0.46047144483123154          C        
         C10       0.5508344496640335  0.4603305750774943  0.9121509230330908  C        
         C11       0.4591455291029757  0.5573102750695865  0.07398234650905547           C        
         C12       0.9065528474171652  0.07480550734832442           0.5565056990524657 C        
         C13       0.0740228584896973  0.5541516669637868  0.45951142987659827           C        
         C14       0.5528021670081565  0.07531120191417913           0.9103075623952327 C        
         C15       0.4571782347498026  0.9121182013688812  0.07601121287957478           C        
         C16       0.9072709032420512  0.4621537688034883  0.5557842967639776  C        
         C17       0.07025525221065913           0.4634922608575989  0.9092119155538788 C        
         C18       0.5522677619798054  0.9112935971309186  0.46135959996669823           C        
         C19       0.45782663867425666           0.0760023851690409  0.5554949159971897 C        
         C20       0.9068240613051411  0.5566113718776982  0.07489454424724669           C        
         C21       0.07289296884588783           0.9120168284213261  0.5547686058928993 C        
         C22       0.5533664799974765  0.4630574097557319  0.07404981356806306           C        
         C23       0.4566164717913961  0.5545725845713412  0.9120884760489335  C        
         C24       0.9066773613233188  0.07482444708532016           0.46221963692565726          C        
         C25       0.30617700030257744           0.9966942628456632  0.701071155621796  C        
         C26       0.9923647303885264  0.3105209007983021  0.9957674276205184  C        
         C27       0.9923098727916757  0.7020426065531492  0.9957922128884454  C        
         C28       0.6978622494576098  0.9966105148396168  0.3097248906363408  C        
         C29       0.3062237631278533  0.9968678181352668  0.9960198449095254  C        
         C30       0.9932980908511878  0.7012731954855527  0.3092642888676265  C        
         C31       0.9930762827825899  0.30979887407596896           0.7008186197149521 C        
         C32       0.6976763234129222  0.996631263417373   0.9963474181938908  C        
         C33       0.30623786928905655           0.7016054535792421  0.9960126262263121 C        
         C34       0.9926738646655492  0.9965673323588925  0.7012174772185508  C        
         C35       0.9929820444397978  0.9965962184697021  0.30956484448289784           C        
         C36       0.6977002729067164  0.30999527015465533           0.9962359665332698 C        
         C37       0.9892003793369863  0.6041274841388411  0.9927032488712514  C        
         C38       0.5993310503935732  0.9941025751483993  0.413273162701896   C        
         C39       0.4097549836458178  0.9941998918971081  0.6025637956515846  C        
         C40       0.9892522805897256  0.4146175551625212  0.9927379343176318  C        
         C41       0.990993016453089   0.41302572064841286           0.6019393006608454 C        
         C42       0.599197242998723   0.9941231503816137  0.9937432985002039  C        
         C43       0.4097721961266287  0.9943178285899453  0.9935649828681568  C        
         C44       0.9911039657761107  0.6024525045152549  0.41253496590604344           C        
         C45       0.9904146939467667  0.9939745794522007  0.4131928799357675  C        
         C46       0.5991928448141814  0.41357938004597705           0.9936435310288537 C        
         C47       0.4097880506404826  0.6030537732014132  0.9935191216845812  C        
         C48       0.9901770210469274  0.9939279113330712  0.6027554121757611  C        
         O1        0.07133418185373078           0.7396287322991575  0.9205498508787217 O        
         O2        0.7357053050335992  0.07541200731198211           0.26851689729146705          O        
         O3        0.2650193874378038  0.9212264640012022  0.7389034577499565  O        
         O4        0.9172475447059489  0.2690191584987346  0.07488100455020234           O        
         O5        0.07176026169933895           0.2686692910435719  0.7388037468264914 O        
         O6        0.7354448099077304  0.9212410628844071  0.07519623453828019           O        
         O7        0.26507751858981615           0.07559877772620943           0.9205247521592709 O        
         O8        0.9175712851570705  0.7393329777301962  0.26835541824006526           O        
         O9        0.07178182816981993           0.9211627190616531  0.26830961997677594          O        
         O10       0.7354904475988309  0.26870349765317963           0.9208618112590364 O        
         O11       0.26521392563138446           0.7396383167764806  0.07464110277018934          O        
         O12       0.9171367113262301  0.07532129909350331           0.7391166119947976 O        
         O13       0.07199504232071663           0.739248246175386   0.26809750250108594          O        
         O14       0.7355932196323657  0.07535780438283934           0.9208312382613013 O        
         O15       0.2650461217343898  0.921406524554149   0.07479319023116054           O        
         O16       0.9173407969577569  0.26889138746670327           0.7389384536988419 O        
         O17       0.07130616990533457           0.26918791078129295           0.9204546486615374 O        
         O18       0.7357207326566166  0.9211076532410294  0.2685716182524702  O        
         O19       0.2649934642012689  0.07545651793243574           0.7389820939235319 O        
         O20       0.9171538287046616  0.7395871173669633  0.07488833472292317           O        
         O21       0.0715477537511089  0.921196615381279   0.7389875127289572  O        
         O22       0.735631451392312   0.2689295873196169  0.07492674382006888           O        
         O23       0.26492468941162545           0.739330316920022   0.9206966585732234 O        
         O24       0.9174764102309991  0.07539533856548933           0.2684494342932892 O        
         O25       0.0646200019505364  0.06850285671226375           0.7988179696462352 O        
         O26       0.06472465439889769           0.0686770509429276  0.06801236281979542          O        
         O27       0.06473299696215709           0.7992448517006991  0.06801137290535303          O        
         O28       0.7953996936726669  0.06851856601072379           0.06823831240600461          O        
         O29       0.9477176776579006  0.9514648371711836  0.1500339515075029  O        
         O30       0.947577935678651   0.9514539980579096  0.9510981667813914  O        
         O31       0.9476059556921306  0.15043601784339825           0.951069501297327  O        
         O32       0.1465987327419081  0.9515320189236831  0.9509918872454728  O
_cell_angle_alpha                       60.00665535575196
_cell_angle_beta                        59.996522811448514
_cell_angle_gamma                       59.99446773047769
_cell_length_a                          14.77184919934
_cell_length_b                          14.770196959206961
_cell_length_c                          14.772119682843153
loop_
  _symmetry_equiv_pos_as_xyz
         'x, y, z' 
_symmetry_int_tables_number             1
_symmetry_space_group_name_H-M          'P 1'