
##########################################################################
#               Crystallographic Information Format file
#               Produced by PyCifRW module
#
#  This is a CIF file.  CIF has been adopted by the International
#  Union of Crystallography as the standard for data archiving and
#  transmission.
#
#  For information on this file format, follow the CIF links at
#  http://www.iucr.org
##########################################################################

data_0

loop_
  _atom_site_label
  _atom_site_fract_x
  _atom_site_fract_y
  _atom_site_fract_z
  _atom_site_type_symbol
         C1        0.9686312647620003  0.5342377535773926  0.1008900349659357  C        
         C2        0.9195956885429024  0.08617962295328815           0.5365988134158768 C        
         C3        0.867535317858927   0.8993169164716422  0.43300307984196656           C        
         C4        0.8331443023958937  0.4501189566171865  0.9138138568658016  C        
         C5        0.8213192606252088  0.17212711119946464           0.5673812402920413 C        
         C6        0.8076073957598373  0.4844533349806922  0.013133377442107925         C        
         C7        0.7945409333441353  0.9870794098866944  0.47133708177016587           C        
         C8        0.7464028681695098  0.567563548972123   0.39520299998252956           C        
         C9        0.6767447256437927  0.47132883635137013           0.4843755058752252 C        
         C10       0.6486967821713285  0.39481349147600864           0.8278845409839516 C        
         C11       0.6171841267936748  0.5366727804137941  0.4503849448541926  C        
         C12       0.5652527641543369  0.4329653717667766  0.5338782468556225  C        
         C13       0.43474899052453453           0.5670606681452103  0.4661366854643216 C        
         C14       0.3828180025210123  0.46335330854085555           0.5496302626022348 C        
         C15       0.351302556857217   0.6052088021419141  0.17212809632153503           C        
         C16       0.3232578629498053  0.5286979264077777  0.5156404170395733  C        
         C17       0.25359900421501247           0.43246037950187316           0.6048105928962512 C        
         C18       0.20545858158888602           0.012944712097512589          0.5286734103817632 C        
         C19       0.19239211453543395           0.5155688545342364  0.9868795267850341 C        
         C20       0.1786796674475328  0.8278966319875012  0.43262837704826546           C        
         C21       0.16685506502572142           0.5499033505546619  0.08619907370688126          C        
         C22       0.13246388131080528           0.10070717307434582           0.5670071748463135 C        
         C23       0.08040388269899965           0.9138443827796837  0.4634113961217319 C        
         C24       0.03136832837335403           0.4657842634072316  0.8991228396628815 C        
         H1        0.8155650557707331  0.4492097058837973  0.4713256272251569  H        
         H2        0.6558052675193863  0.4714979583263461  0.022361803135734767         H        
         H3        0.63357712066474    0.9780975802231654  0.4492399569178196  H        
         H4        0.36642261258591785           0.02192707421726945           0.5507705149361399 H        
         H5        0.34419432721662285           0.5285239644198433  0.9776511216063241 H        
         H6        0.18443777143086    0.5508174656140368  0.5286905631124795  H        
         O1        0.9321089545115675  0.2643376132889613  0.629561935504845   O        
         O2        0.9288899897550461  0.5649905104408804  0.1937247576229147  O        
         O3        0.9005025689210138  0.5334218270568122  0.37788670116390966           O        
         O4        0.7347302119183374  0.8066981054612421  0.3705780176787599  O        
         O5        0.6982666666454438  0.6299988502536874  0.3652412335143411  O        
         O6        0.6668868327085357  0.3644800514702501  0.7354774587077106  O        
         O7        0.635414720490406   0.3705414542785486  0.5643239548871412  O        
         O8        0.632983101598909   0.15540229411457707           0.533381512062635  O        
         O9        0.5227754300889912  0.6222036543436508  0.15516594950963689           O        
         O10       0.47722403775927025           0.3778162407040685  0.8448459228400464 O        
         O11       0.3670162373523878  0.8446197210692415  0.4666252521618596  O        
         O12       0.36458682596707637           0.6294837537325627  0.4356898423635366 O        
         O13       0.33311249649050534           0.6355447925136021  0.26453562379629   O        
         O14       0.30173831438927573           0.3700262583693064  0.6347733597103777 O        
         O15       0.26526747593397354           0.19332627312051875           0.629431722865716  O        
         O16       0.09949484362799765           0.4665983586320565  0.6221243730799542 O        
         O17       0.07110934137899066           0.43503148186151713           0.8062880821907425 O        
         O18       0.0678869603221265  0.735686164570785   0.3704496541326523  O        
         Mg1       0.8876493154150363  0.40751711148869724           0.6735762032779812 Mg       
         Mg2       0.7857860127275481  0.6740492419120687  0.2657512790303533  Mg       
         Mg3       0.5201785961706811  0.734501490966321   0.407876367978444   Mg       
         Mg4       0.4798233457976008  0.26552240063109717           0.5921353285039114 Mg       
         Mg5       0.21421358121160744           0.32597384116134254           0.7342606033909052 Mg       
         Mg6       0.11235025256781664           0.5925072510402755  0.32643761563696244          Mg
_cell_angle_alpha                       117.6144206601584
_cell_angle_beta                        98.7842631569951
_cell_angle_gamma                       98.76838921218213
_cell_length_a                          6.9600568499774
_cell_length_b                          15.238706106216535
_cell_length_c                          15.22853523204754
loop_
  _symmetry_equiv_pos_as_xyz
         'x, y, z' 
_symmetry_int_tables_number             1
_symmetry_space_group_name_H-M          'P 1'