
##########################################################################
#               Crystallographic Information Format file
#               Produced by PyCifRW module
#
#  This is a CIF file.  CIF has been adopted by the International
#  Union of Crystallography as the standard for data archiving and
#  transmission.
#
#  For information on this file format, follow the CIF links at
#  http://www.iucr.org
##########################################################################

data_0

loop_
  _atom_site_label
  _atom_site_fract_x
  _atom_site_fract_y
  _atom_site_fract_z
  _atom_site_type_symbol
         Zn1       0.7488012388248813  0.24735217890899108           0.49722104599291855          Zn       
         Zn2       0.2504534664091614  0.7526302844612605  0.502212555828581   Zn       
         Zn3       0.5030145137694282  0.2514273025988176  0.7514895404660454  Zn       
         Zn4       0.4966667862427733  0.7485052699148503  0.248103271346482   Zn       
         Zn5       0.2500371993798363  0.4978255109319241  0.7489100956028999  Zn       
         Zn6       0.7495958073107404  0.5020664621857958  0.2507521267870959  Zn       
         H1        0.6507880721179906  0.12408401277877712           0.23599560046060206          H        
         H2        0.8828142173886718  0.39921555162303896           0.7603972024456586 H        
         H3        0.3437928678138139  0.5857892015612537  0.46840220102316865           H        
         H4        0.5351969643740262  0.11595286790051819           0.877728430619453  H        
         H5        0.47729830377217086           0.3533810145468242  0.5900498844318413 H        
         H6        0.23482202944476174           0.6571403272505622  0.1241393793840897 H        
         H7        0.7601091396401459  0.8829975908737738  0.407209654403041   H        
         H8        0.4128720457836677  0.7595496011599706  0.8825099706004866  H        
         H9        0.12442453428751232           0.2367133168556711  0.6546850837737438 H        
         H10       0.5819520212452138  0.4684686738331124  0.34424538877436367           H        
         H11       0.8788474350682949  0.5331857568320479  0.11771602734191082           H        
         H12       0.12230609748366159           0.6611316440965197  0.24155435740689063          H        
         H13       0.5873481362601756  0.34740944018834585           0.4702418085073599 H        
         H14       0.8764384215258776  0.11237732141845329           0.519132076442796  H        
         H15       0.6506869988218151  0.24115720900009244           0.12269590370097035          H        
         H16       0.8842074441153273  0.7634522158124486  0.4162319462331936  H        
         H17       0.11322136437389808           0.5138639289987459  0.8767892550805152 H        
         H18       0.34207198944030603           0.4675226688920284  0.5804524673920258 H        
         H19       0.5223598627282083  0.8758950583848613  0.1119162449543913  H        
         H20       0.4647655992626262  0.5809027198420926  0.3418966311638224  H        
         H21       0.24096168637774323           0.12365694023049865           0.6562458998893056 H        
         H22       0.7658439237714176  0.4176015510961878  0.8881753771653973  H        
         H23       0.8632025037821464  0.5600522437018753  0.4876727479872049  H        
         H24       0.8619456753948167  0.48460085293850474           0.5601084181307721 H        
         H25       0.750344654186844   0.5082337734258564  0.5095516887519931  H        
         H26       0.05487788531418151           0.3917765046177767  0.5016886255207026 H        
         H27       0.917508712859288   0.2803375340369529  0.43660141007128406           H        
         H28       0.03395852535753242           0.26720811723257787           0.5016643646678578 H        
         H29       0.00726291483925997           0.4977774179060685  0.24766326754040285          H        
         H30       0.9240295704549263  0.4420636021685004  0.29952934971104855           H        
         H31       0.0715761308267136  0.5149396731589988  0.3813959628097056  H        
         H32       0.1402360163198356  0.6255094705803262  0.7023324452299851  H        
         H33       0.13816042767207382           0.6988786887555674  0.6278706053477188 H        
         H34       0.2522277608893752  0.7598588628184287  0.7614628793884428  H        
         H35       0.30598624894796517           0.9310824222802297  0.44183078785204455          H        
         H36       0.37515253305809165           0.0781688260320285  0.5162380034913823 H        
         H37       0.2404253775421616  0.998828898563337   0.49158539269766127           H        
         H38       0.7364258037346006  0.17404238198430078           0.6523372067721948 H        
         H39       0.6092067578056084  0.10003216111705195           0.6453437973421218 H        
         H40       0.7162213423157098  0.22588571873812177           0.7665453340316106 H        
         H41       0.5588449069209087  0.8644484578632086  0.4882569767824334  H        
         H42       0.5108516535804066  0.7453559775085393  0.5015522931886897  H        
         H43       0.48451444085090456           0.8518205281066883  0.5609394617103893 H        
         H44       0.43587367882407596           0.920795638372049   0.2945799289713315 H        
         H45       0.49113114660498364           0.00920592046957879           0.24694954242564449          H        
         H46       0.5080500891608465  0.06699762662439683           0.3807805288071311 H        
         H47       0.38856747817096    0.4907203285152077  0.03661728122886443           H        
         H48       0.26149135991757727           0.43834118242300646           0.9169768395341824 H        
         H49       0.28236135438988064           0.5113626195477246  0.05145947030056165          H        
         H50       0.503061060210797   0.5142562032980076  0.7472554601333058  H        
         H51       0.5634316423633073  0.4840697673650268  0.8509274061554503  H        
         H52       0.49173582844310115           0.5583890048130898  0.8674762338659175 H        
         H53       0.6245220343361036  0.703235804590988   0.14013898788440976           H        
         H54       0.6915057066986833  0.6231788785330818  0.13227139936627197           H        
         H55       0.7597172199191282  0.7564497030734575  0.24792767627263643           H        
         H56       0.4853361197348953  0.23687322520626333           0.9883664969702681 H        
         H57       0.44183775209898013           0.3124595087119922  0.9310334603487925 H        
         H58       0.5161212564850582  0.370584859895707   0.07732379719728925           H        
         H59       0.4187577448449272  0.8865845928431784  0.763273501839172   H        
         H60       0.11462546812422815           0.8788524772765934  0.5320320810999324 H        
         C1        0.6790211387582297  0.21094459677198824           0.26539060781058654          C        
         C2        0.9415858297943047  0.40254355128635355           0.7317000766881014 C        
         C3        0.056570369002742614          0.7922125133265205  0.4728928050800979 C        
         C4        0.31695929958969055           0.5864595224489976  0.5281262638338153 C        
         C5        0.4749659471190482  0.05819289286148324           0.791208039471455  C        
         C6        0.5335710193780918  0.3223009703720239  0.5884366949620677  C        
         C7        0.2642155128296771  0.6836697590671803  0.21085188584000328           C        
         C8        0.7312938824949621  0.9411213917996405  0.4075492843903602  C        
         C9        0.41180061465091217           0.7311119833481008  0.9409728419821667 C        
         C10       0.21144448342405187           0.2659189352410892  0.6817191184014577 C        
         C11       0.5829129761387674  0.5277531892913371  0.31660066117550695           C        
         C12       0.7920183146219497  0.47359714006472237           0.059111017930697826         C        
         C13       0.4174630978939387  0.9448174045073546  0.7346208185555853  C        
         C14       0.20859780060886937           0.6856984920206657  0.2688929999321465 C        
         C15       0.5879983245432967  0.3194215003424976  0.5292865685014865  C        
         C16       0.7887457496677159  0.054467676999483884          0.4630676439860256 C        
         C17       0.6789993602261277  0.26879150245953864           0.20940925264848628          C        
         C18       0.9426605684695465  0.7351721086747259  0.41559790643036654           C        
         C19       0.05546181991079598           0.45924036320198564           0.7892113815122773 C        
         C20       0.3162063467283428  0.5280890928126876  0.5835860264417005  C        
         C21       0.46601515954440664           0.7886118518690507  0.0543499090877763 C        
         C22       0.5250997176389224  0.5834132022924834  0.315529471562174   C        
         C23       0.26904032060949756           0.21001957644393682           0.6825335157761484 C        
         C24       0.7361824340644866  0.41632365745092476           0.9456593368699446 C        
         C25       0.8104428503134865  0.4901645231113438  0.4912299095375383  C        
         C26       0.7547962762752439  0.3856274569627694  0.38518072602857006           C        
         C27       0.0013232457529446452         0.324198114901476   0.5075419727538688 C        
         C28       0.9998116560292535  0.36775116835485616           0.6129810619152357 C        
         C29       0.0006509741999515117         0.5124493138738645  0.32240734520852427          C        
         C30       0.00011262160814238171        0.6174101557322215  0.3722464295559918 C        
         C31       0.19124262637500972           0.6816194902259735  0.6836864440922    C        
         C32       0.24503273247361113           0.6309656473986115  0.631565409609082  C        
         C33       0.3206118815597262  0.0025990951881946244         0.5109614874286362 C        
         C34       0.3721099740644392  0.0021653523266533525         0.6163006167056997 C        
         C35       0.6759229557196167  0.18300123155915302           0.6760097849158048 C        
         C36       0.630659529859261   0.243436204628374   0.6294447307240582  C        
         C37       0.49008904108108353           0.8066789970299556  0.48954981135434983          C        
         C38       0.3839269127954035  0.754507356778716   0.38522491575330386           C        
         C39       0.5061384708322915  0.9986988822162797  0.3198332887971415  C        
         C40       0.6120493002396173  0.9981539292599875  0.3675344550519467  C        
         C41       0.32237899787748897           0.5077270715312665  0.0008190409693972747        C        
         C42       0.36839013788120917           0.6130209419090578  0.9989625960222406 C        
         C43       0.491873244580692   0.4909568715744562  0.8076967572929883  C        
         C44       0.38680031317597335           0.385113932966027   0.7542811937233251 C        
         C45       0.6786622557005345  0.6810352561449501  0.1880790754405979  C        
         C46       0.6277620048756293  0.6299201944781408  0.24289556428693898           C        
         C47       0.5092319571212708  0.3201381903210552  0.9994705992161097  C        
         C48       0.61583683815044    0.3715116157015132  0.0009030905345432126        C        
         N1        0.7266766723373507  0.2849400727072663  0.37630552661585326           N        
         N2        0.9067003882988892  0.3447065694839436  0.6204229356481683  N        
         N3        0.0925950666654429  0.7176705043076302  0.4451296618577176  N        
         N4        0.272225047599949   0.6515618091767941  0.5587990457706266  N        
         N5        0.4458622800268108  0.09410392902956533           0.7163293751328356 N        
         N6        0.5609745245521014  0.27460504947367603           0.6518739451262056 N        
         N7        0.37485304145355425           0.7268703212439875  0.2845279972931802 N        
         N8        0.6197564051091298  0.9057841488109677  0.34709629205567194           N        
         N9        0.349876637970441   0.6202507728740411  0.9062107543066765  N        
         N10       0.2860301583229725  0.37640011292691417           0.7267847422632412 N        
         N11       0.6478536272282965  0.5575041215455773  0.27091066456784396           N        
         N12       0.7158326638223805  0.4449469911136142  0.09372860088208396           N        
         N13       0.3523823982690322  0.9096611312557361  0.6242003379818141  N        
         N14       0.28437556000771935           0.7301758688584089  0.3789118034304699 N        
         N15       0.6495503097634899  0.2699148745263803  0.5556855341681501  N        
         N16       0.7132075044032679  0.09017616984585555           0.43747891857631893          N        
         N17       0.7266519904171078  0.3790199300707128  0.2852397113148796  N        
         N18       0.9072753704242157  0.6248508437924228  0.35188911656537547           N        
         N19       0.0919852761078606  0.4369828151077383  0.7140527876539035  N        
         N20       0.27107849480062285           0.5566333154301292  0.6490778097778123 N        
         N21       0.43813883309761714           0.7138374934796825  0.0906827984488136 N        
         N22       0.5539023698581749  0.6481247507928678  0.26933194088190754           N        
         N23       0.3797120911086692  0.2854885722626108  0.7281425713455332  N        
         N24       0.6249958738182694  0.35171152270124534           0.9091763192592003 N
_cell_angle_alpha                       109.11832295745067
_cell_angle_beta                        109.54786040886019
_cell_angle_gamma                       109.6848301697428
_cell_length_a                          14.797973684658
_cell_length_b                          14.828130959562758
_cell_length_c                          14.803121678229342
loop_
  _symmetry_equiv_pos_as_xyz
         'x, y, z' 
_symmetry_int_tables_number             1
_symmetry_space_group_name_H-M          'P 1'