
##########################################################################
#               Crystallographic Information Format file
#               Produced by PyCifRW module
#
#  This is a CIF file.  CIF has been adopted by the International
#  Union of Crystallography as the standard for data archiving and
#  transmission.
#
#  For information on this file format, follow the CIF links at
#  http://www.iucr.org
##########################################################################

data_0

loop_
  _atom_site_label
  _atom_site_fract_x
  _atom_site_fract_y
  _atom_site_fract_z
  _atom_site_type_symbol
         Al1       1.990852181181261e-06         0.4999994906833578  0.9999999975614388 Al       
         Al2       0.500002092731399   0.49999968274117806           0.9999999958568925 Al       
         C1        0.465843811861955   0.9320547324971473  0.33108607352890285           C        
         C2        0.3665783698381772  0.7342261234817795  0.5406541377644049  C        
         C3        0.3905585459298603  0.7826293947043159  0.7083259440977312  C        
         C4        0.3302794949794539  0.6626820055323445  0.8288766145100854  C        
         C5        0.29929181405171257           0.6004138919421665  0.8945103940280971 C        
         C6        0.40928106559239263           0.8193357475866583  0.43314559001205083          C        
         C7        0.42347198421089166           0.8478564465926808  0.3548604833382859 C        
         C8        0.2992917938298415  0.6004138843745693  0.1054896148073155  C        
         C9        0.409281066611585   0.8193357563471579  0.5668545078637283  C        
         C10       0.42347197232691974           0.8478564556580033  0.6451394311258299 C        
         C11       0.46584373439251003           0.9320546484822518  0.6689139227135508 C        
         C12       0.36657839654965524           0.7342261746387015  0.45934582578511896          C        
         C13       0.39055857172962505           0.7826294132608006  0.29167404859937207          C        
         C14       0.17057237502182632           0.6926497958715959  0.798236763275091  C        
         C15       0.3302794905992178  0.6626820254098615  0.17112340958454586           C        
         C16       0.7007121996014162  0.3995850651363015  0.10548952208174533           C        
         C17       0.2007055844764173  0.7522293689041688  0.7383331418498769  C        
         C18       0.5907193173524286  0.18066260490563335           0.5668546263430307 C        
         C19       0.5765269953855241  0.15214193080374855           0.6451395907256348 C        
         C20       0.5341534767854977  0.06794370519286166           0.6689140429373526 C        
         C21       0.6334228225602533  0.265772180586798   0.45934585278846424           C        
         C22       0.6094413891216648  0.21736888794476197           0.29167365268563267          C        
         C23       0.669723115510207   0.33731645180302117           0.17112296099801083          C        
         C24       0.47867829293220965           0.9575664257355835  0.24831309776900173          C        
         C25       0.5213192306148282  0.04243177976895367           0.24831303009339517          C        
         C26       0.5213191752760127  0.04243173673184862           0.7516870036868871 C        
         C27       0.4786782572568733  0.9575664231027694  0.7516869287917501  C        
         C28       0.8294307735033001  0.3073512042305305  0.7982342607615811  C        
         C29       0.5199529010102998  0.6923833542160547  0.20146080833462687           C        
         C30       0.5496810580248684  0.7519626133209875  0.2613409022902866  C        
         C31       0.7992962626291837  0.24777180197160686           0.7383304800760053 C        
         C32       0.48004769629079647           0.3076122824140078  0.20145733005450292          C        
         C33       0.45031809357152414           0.24803276254129142           0.2613371829391496 C        
         C34       0.1705723920764898  0.6926497730755871  0.2017631945679175  C        
         C35       0.20070548291313303           0.7522294104644657  0.2616668892868719 C        
         C36       0.829430668842514   0.30735104689064807           0.20176552820426047          C        
         C37       0.7992962790724245  0.24777157718455287           0.26166937793110207          C        
         C38       0.48004757799669845           0.30761207969756543           0.7985427813955605 C        
         C39       0.4503181097551301  0.24803258150198998           0.7386630365305273 C        
         C40       0.5199529367717983  0.6923833748147628  0.7985391430223697  C        
         C41       0.5496809178686007  0.7519625706476012  0.7386591198025041  C        
         C42       0.7007121970354342  0.3995850640079174  0.8945104784535187  C        
         C43       0.5907193068128574  0.18066263103743746           0.4331454945932121 C        
         C44       0.5765270216313069  0.15214197313757183           0.3548603440533241 C        
         C45       0.534153495264117   0.0679436571547048  0.3310859612479834  C        
         C46       0.6334228522085673  0.2657722225664757  0.5406541555569415  C        
         C47       0.6094413876909147  0.2173688738594454  0.7083263647523437  C        
         C48       0.669723122608134   0.33731647627315636           0.8288770563165112 C        
         H1        0.9215551982325536  0.22378512094901978           0.7144737570104379 H        
         H2        0.33988657653155485           0.6809508299563408  0.5799624209805728 H        
         H3        0.3398865902057791  0.6809508525579018  0.4200375720820966  H        
         H4        0.6601148737025385  0.31904753493929683           0.42003761219640323          H        
         H5        0.02495353923806842           0.6686476550505923  0.8222771819850948 H        
         H6        0.07844730600379804           0.7762180812878204  0.7144786452898474 H        
         H7        0.1955078906480985  0.38964406793562356           1.0283980014492118e-08       H        
         H8        0.8044963587920055  0.6103550727789767  5.371332308378344e-09        H        
         H9        0.5338036067684332  0.06775356961159494           0.4999999967766837 H        
         H10       0.46619504582153354           0.9322448247631601  0.5000000033218235 H        
         H11       0.45776643267004874           0.9157215827334004  0.19810468755394398          H        
         H12       0.5422317439502249  0.08427648073969204           0.19810449982398542          H        
         H13       0.5422317122235146  0.08427644960751886           0.8018955101846565 H        
         H14       0.45776639569248206           0.9157215640614308  0.8018953088462153 H        
         H15       0.6412770865587465  0.6681418281624034  0.17717097021384284           H        
         H16       0.6959404466322264  0.7757399555860602  0.28494625715454813           H        
         H17       0.3587230496392288  0.33185193989261796           0.17716537671732482          H        
         H18       0.3040570189167841  0.22425322247135554           0.28493998914106095          H        
         H19       0.9750510473927209  0.3313551616293324  0.8222725668396734  H        
         H20       0.024953547305049555          0.6686476651943094  0.17772283810389394          H        
         H21       0.07844735437921779           0.7762180917182309  0.28552135234571163          H        
         H22       0.9750508741666049  0.3313548228406271  0.17772714861035435           H        
         H23       0.921555001482545   0.22378479366493523           0.2855259429193024 H        
         H24       0.3587228961000194  0.3318516402517554  0.8228349090637997  H        
         H25       0.3040568074653211  0.22425286763851254           0.7150603217178574 H        
         H26       0.6412770982734924  0.668141816195731   0.8228290388469633  H        
         H27       0.6959404651369517  0.775739940887383   0.7150537276643123  H        
         H28       0.6601148887488619  0.3190475353254876  0.5799624453958024  H        
         N1        0.49999846209299736           0.9999992253195114  0.3805551973848324 N        
         N2        0.499998408392273   0.9999992088157587  0.6194448187438478  N        
         N3        0.5659742327468849  0.1315026335264149  0.4999999676340428  N        
         N4        0.4340256757496458  0.8684957790165542  0.4999999625684525  N        
         O1        0.12288534199958734           0.5771591174031275  0.07992792234007425          O        
         O2        0.8771189760652154  0.4228397214741772  0.07992805766776973           O        
         O3        0.22538121785880527           0.45006584563125934           0.9999999995784177 O        
         O4        0.7746228008817659  0.5499332767279382  8.246281602344776e-10        O        
         O5        0.5473596776823129  0.4229729832186581  0.9200942097317407  O        
         O6        0.4526450192687409  0.577026511591566   0.9200941958970373  O        
         O7        0.8771190066970799  0.42283974863910406           0.9200719332383779 O        
         O8        0.12288534067357831           0.5771591088302347  0.9200720886482506 O        
         O9        0.45264501344069785           0.5770265240967463  0.07990580864736051          O        
         O10       0.5473596617683841  0.42297297302801995           0.07990579938842375          O
_cell_angle_alpha                       90.00000034154557
_cell_angle_beta                        90.00000019796953
_cell_angle_gamma                       102.03571187453457
_cell_length_a                          6.9353412232403
_cell_length_b                          16.398360143980632
_cell_length_c                          16.92772120178
loop_
  _symmetry_equiv_pos_as_xyz
         'x, y, z' 
_symmetry_int_tables_number             1
_symmetry_space_group_name_H-M          'P 1'