
##########################################################################
#               Crystallographic Information Format file
#               Produced by PyCifRW module
#
#  This is a CIF file.  CIF has been adopted by the International
#  Union of Crystallography as the standard for data archiving and
#  transmission.
#
#  For information on this file format, follow the CIF links at
#  http://www.iucr.org
##########################################################################

data_0

loop_
  _atom_site_label
  _atom_site_fract_x
  _atom_site_fract_y
  _atom_site_fract_z
  _atom_site_type_symbol
         Cu1       0.49999967135604567           0.9999997821452428  0.2752055687669391 Cu       
         Cu2       0.9999996851732728  0.5000001608069771  0.7752053702526017  Cu       
         Cu3       0.5000000684649952  0.9999997954029982  0.7247944401076832  Cu       
         Cu4       0.9999996846249781  0.4999997419272171  0.22479473362542118           Cu       
         H1        0.4074936842958584  0.5772996996105075  0.4326784825291542  H        
         H2        0.4973050839929236  0.669101817922688   0.38354896780120395           H        
         H3        0.5034129231759532  0.7600605754929076  0.30760445200520814           H        
         H4        0.3290199170514555  0.9146305510007229  0.49582276231306605           H        
         H5        0.2906363738059904  0.974631605292414   0.42784179092865876           H        
         H6        0.30972177135231566           0.05515085557002025           0.3506506142484011 H        
         H7        0.13494952791967163           0.6605557030024537  0.7004481758531087 H        
         H8        0.26788168419414293           0.8096227316146429  0.565038014004901  H        
         H9        0.1389001837166306  0.30990657094162527           0.7452394706670725 H        
         H10       0.12046199173524727           0.6698998589123731  0.6008052685303722 H        
         H11       0.2629859359384489  0.6979854249275651  0.6258755505369693  H        
         H12       0.19669498676229816           0.23458474253120348           0.6680088015676267 H        
         H13       0.22035178720947385           0.3825966254466664  0.6045005820731219 H        
         H14       0.5925064440843013  0.4227000195537882  0.43267862329018997           H        
         H15       0.5026947865216657  0.3308978293239527  0.3835491326000127  H        
         H16       0.49658627641344383           0.2399393166439039  0.3076045219931735 H        
         H17       0.6709808277356807  0.08536941961821252           0.4958226750695481 H        
         H18       0.7093640297747902  0.02536862402068708           0.4278417280955275 H        
         H19       0.6902783398465469  0.9448489734466876  0.35065059448599767           H        
         H20       0.8650510591207184  0.3394440155668442  0.7004481884132199  H        
         H21       0.7321186736050245  0.19037679872002827           0.5650380381324935 H        
         H22       0.8611000836101903  0.6900931960097542  0.7452393660223499  H        
         H23       0.8795383672918213  0.3301002663934873  0.6008051462968315  H        
         H24       0.7370145588091301  0.3020140008473411  0.6258755089809243  H        
         H25       0.8033054168377111  0.7654152069141866  0.6680086454879304  H        
         H26       0.7796487152597343  0.6174031546044315  0.6045005710094036  H        
         H27       0.422700339611993   0.4074922362342256  0.9326782638002246  H        
         H28       0.33089868570494996           0.4973053103270548  0.8835482915037952 H        
         H29       0.23993824402035707           0.5034147196889658  0.8076038046506152 H        
         H30       0.08537140622692732           0.32902119460859447           0.9958221629475354 H        
         H31       0.025369960891539287          0.2906373111659266  0.9278419982298416 H        
         H32       0.9448490959820098  0.3097236266239343  0.8506509808696041  H        
         H33       0.3394451145538924  0.13494833465455608           0.20044820700465402          H        
         H34       0.19037665418904182           0.26788300291522577           0.06503772642896162          H        
         H35       0.6900927254899089  0.13889908607736481           0.24523899152180115          H        
         H36       0.3300999302168923  0.1204624088407937  0.10080517050077566           H        
         H37       0.3020143919016119  0.26298598421574865           0.12587570266960382          H        
         H38       0.765415035493892   0.19669347006786728           0.16800869931317258          H        
         H39       0.6174036527141762  0.22035144310796803           0.10450029703894674          H        
         H40       0.5772988359188007  0.5925079890691886  0.9326782551999098  H        
         H41       0.6691013127405485  0.5026938213838679  0.8835482445688928  H        
         H42       0.7600622394424051  0.4965850625337623  0.807603926166414   H        
         H43       0.9146288508976517  0.6709791794951384  0.9958222745921272  H        
         H44       0.9746302244053803  0.7093633032345017  0.9278418762794343  H        
         H45       0.055150275321925256          0.6902765024783195  0.8506508077492368 H        
         H46       0.6605545026418148  0.8650513178656807  0.20044814608861183           H        
         H47       0.8096227911545645  0.7321172320168572  0.0650376861568337  H        
         H48       0.3099067729518427  0.8611003835400268  0.24523893161764554           H        
         H49       0.6698995834159178  0.8795376238216215  0.10080520602688571           H        
         H50       0.6979850696650531  0.7370137876787716  0.12587564255641331           H        
         H51       0.23458473810364328           0.803305679930947   0.1680087337248586 H        
         H52       0.38259599279194845           0.7796479270540208  0.10450033842129106          H        
         H53       0.5925067253607585  0.5772995970182336  0.5673217374321222  H        
         H54       0.5026953040901536  0.6691014270953307  0.6164513153596077  H        
         H55       0.49658743900739605           0.7600604863505993  0.6923959021538776 H        
         H56       0.6709790350005963  0.9146308226108181  0.504177351424978   H        
         H57       0.709363640279632   0.9746314601303292  0.5721583011494717  H        
         H58       0.6902782832055651  0.05515093696201985           0.6493495543855361 H        
         H59       0.8650506327294881  0.6605554826719925  0.29955211152127115           H        
         H60       0.7321174079623237  0.8096222834223742  0.43496211321238604           H        
         H61       0.8610999366345995  0.309906733941403   0.2547608537342079  H        
         H62       0.8795378316153475  0.6698994061288795  0.39919495001567806           H        
         H63       0.7370138453926834  0.6979854115753835  0.37412463085890996           H        
         H64       0.8033048149324835  0.23458484821308292           0.33199121640519635          H        
         H65       0.7796477470721707  0.38259647405486813           0.395499563780414  H        
         H66       0.4074937106877599  0.42270016044025105           0.5673216324573712 H        
         H67       0.49730470175055347           0.33089823815105673           0.6164512405809861 H        
         H68       0.5034127090527372  0.23993970100010142           0.6923958882689027 H        
         H69       0.32902085720406293           0.08536935215228342           0.5041774610185641 H        
         H70       0.29063655439970815           0.025368858319772758          0.5721583702736357 H        
         H71       0.3097215719100837  0.9448491915630888  0.649349567371569   H        
         H72       0.1349491737092146  0.33944450940716786           0.2995520633257327 H        
         H73       0.2678821642947201  0.19037708267875386           0.43496209181321055          H        
         H74       0.13889979344371792           0.6900931374609466  0.25476072487518475          H        
         H75       0.12046211776306825           0.33010057437768303           0.39919492249791516          H        
         H76       0.26298600400103433           0.3020144833265135  0.37412466166911734          H        
         H77       0.19669525027578472           0.7654151621985174  0.3319910716519008 H        
         H78       0.22035253406315625           0.6174035952769279  0.3954995252956407 H        
         H79       0.5772990653547     0.4074921521896144  0.06732185072458027           H        
         H80       0.6691014646975734  0.4973056102498353  0.11645180443550347           H        
         H81       0.7600624060353285  0.5034148344738921  0.19239594927326115           H        
         H82       0.9146286683617151  0.32901748834702194           0.004178075339402065         H        
         H83       0.9746302346348942  0.2906356161511309  0.07215842457316039           H        
         H84       0.05515033740926643           0.30972312327141804           0.1493493199301881 H        
         H85       0.660554704654975   0.13494858133194992           0.7995519531041223 H        
         H86       0.8096226217850571  0.26788031462617007           0.9349626545630394 H        
         H87       0.30990676497872005           0.13889941900873645           0.7547610514799112 H        
         H88       0.6698991529154477  0.12046121853408101           0.8991950517550084 H        
         H89       0.6979853422066602  0.262984739397897   0.8741244919971317  H        
         H90       0.23458448704701448           0.1966933866063126  0.8319915336166683 H        
         H91       0.3825958800892954  0.22035095799453716           0.8954998301510618 H        
         H92       0.42270019035724854           0.5925076182746167  0.06732188298458093          H        
         H93       0.33089809756425775           0.5026943885505825  0.1164516335168552 H        
         H94       0.23993793100135782           0.4965845240985557  0.19239588991836545          H        
         H95       0.08537146999519075           0.6709817575682908  0.004178079777647836         H        
         H96       0.025369934558712826          0.7093637014701548  0.07215832929483124          H        
         H97       0.9448494069633654  0.6902765924875365  0.14934916054360237           H        
         H98       0.3394449836338435  0.8650519037192712  0.7995518244653658  H        
         H99       0.19037675279479274           0.7321191592194778  0.9349625444900875 H        
         H100      0.6900929594339976  0.86110101098195    0.7547612204289801  H        
         H101      0.33010011031977865           0.879538748162933   0.8991950032510974 H        
         H102      0.3020140688739166  0.7370154316892639  0.8741243568874657  H        
         H103      0.7654152613578816  0.8033070260619992  0.8319917302457317  H        
         H104      0.6174035798904794  0.7796492778568129  0.8954999400375541  H        
         C1        0.3770400200638445  0.6290539750636871  0.4615106002948072  C        
         C2        0.33998740036716685           0.5661366541243805  0.4998666212917739 C        
         C3        0.3910287983838639  0.8118512434262392  0.4140070337238926  C        
         C4        0.36984803821210516           0.7543526820310772  0.45767862345823   C        
         C5        0.45343135255593514           0.7546159891533043  0.3781525920389298 C        
         C6        0.4576725850957517  0.805019926960033   0.3353982274863945  C        
         C7        0.29850009179179887           0.6334642958645014  0.537621718666883  C        
         C8        0.3312021331344254  0.8176662792867139  0.49635820962204097           C        
         C9        0.3411463481185531  0.9243565816385625  0.40275980224733204           C        
         C10       0.34959784029779983           0.9693708852897867  0.35916737895837886          C        
         C11       0.14862608245039327           0.5669779739326217  0.6917637781430741 C        
         C12       0.18186265126595041           0.533488871631421   0.6478567525637772 C        
         C13       0.2967191361048707  0.7583614516461696  0.5357455021939228  C        
         C14       0.15054529622705934           0.3702001543225205  0.7165701011252731 C        
         C15       0.20445530154573482           0.6275622253605461  0.6120031901324068 C        
         C16       0.1818212552004373  0.3294002250785673  0.6737992765845497  C        
         C17       0.19634904088647662           0.41175738101105647           0.6384336565074594 C        
         C18       0.6229599581528881  0.37094581729375264           0.4615107192000707 C        
         C19       0.6600128149740764  0.4338631293652681  0.49986682423416384           C        
         C20       0.6089712985680632  0.18814868573431967           0.4140070620260071 C        
         C21       0.6301522679085877  0.24564716671122563           0.4576787078386525 C        
         C22       0.5465683361575574  0.24538338127051992           0.3781525210308967 C        
         C23       0.542326948037598   0.19497977143265252           0.33539838430818936          C        
         C24       0.7015001407384711  0.36653556055532466           0.5376218520751355 C        
         C25       0.66879845328579    0.1823336649238717  0.49635816015800766           C        
         C26       0.6588539380703246  0.07564339990457798           0.40275962392486253          C        
         C27       0.650402308366977   0.03062922095809855           0.35916737701115764          C        
         C28       0.8513746945787155  0.43302186194959286           0.6917636957185596 C        
         C29       0.8181378621133668  0.46651073920401587           0.6478567998530713 C        
         C30       0.703281666998448   0.2416383101244053  0.535745604962513   C        
         C31       0.8494550350108848  0.6297997161923974  0.7165698943155869  C        
         C32       0.7955450240579631  0.3724375243888943  0.6120032353649116  C        
         C33       0.8181791135211428  0.6705995836359382  0.6737992342276279  C        
         C34       0.8036513567257452  0.588242415036611   0.638433562544985   C        
         C35       0.3709465410360751  0.37704074468830096           0.9615104392412224 C        
         C36       0.4338636359040422  0.33998754864733194           0.9998669626011197 C        
         C37       0.18815014200931604           0.3910293499507542  0.9140069237333461 C        
         C38       0.24564832452845797           0.3698486355192293  0.9576786228216718 C        
         C39       0.245383539928409   0.4534314475629417  0.8781514858474374  C        
         C40       0.1949803838033184  0.45767272715237683           0.8353983788870251 C        
         C41       0.3665364229677006  0.29849968290877804           0.037621761586794006         C        
         C42       0.1823354589624706  0.3312023596004579  0.9963577633643738  C        
         C43       0.0756443641383462  0.34114728865629435           0.9027592397055441 C        
         C44       0.030630563574544054          0.34959850956631666           0.8591678631797642 C        
         C45       0.4330220468742397  0.1486252710150706  0.19176398844396483           C        
         C46       0.46651166559811974           0.1818625923584196  0.14785643902453335          C        
         C47       0.24163925944164547           0.29671827680621005           0.03574551328189259          C        
         C48       0.629799473193216   0.15054421238880358           0.21657013832037753          C        
         C49       0.37243766665561456           0.20445537863290492           0.11200338915175254          C        
         C50       0.6705999341355885  0.18182091596119238           0.17379855662822913          C        
         C51       0.5882422370592695  0.19634894689556895           0.1384338133455148 C        
         C52       0.6290532244601604  0.622959635208893   0.9615103640798752  C        
         C53       0.5661361439093267  0.6600124932288334  0.9998667500052417  C        
         C54       0.8118497350842337  0.6089709405691328  0.9140069114994628  C        
         C55       0.7543515373292056  0.630151715902272   0.9576784982299523  C        
         C56       0.7546157466890793  0.5465685726084223  0.8781517058004003  C        
         C57       0.8050195196242904  0.542327130880205   0.8353983779372522  C        
         C58       0.6334634945063252  0.7015003051635077  0.0376216581659788  C        
         C59       0.817664609175896   0.668797966110208   0.9963578107143088  C        
         C60       0.9243555716598856  0.6588527622330531  0.902759465244251   C        
         C61       0.969369546426707   0.6504012993024619  0.8591678574673499  C        
         C62       0.5669777842332183  0.8513744698448864  0.19176409916967088           C        
         C63       0.5334877406096904  0.818137007391876   0.14785629364158479           C        
         C64       0.758360489625947   0.7032816142905849  0.03574528040010035           C        
         C65       0.3702001195991754  0.8494553716513493  0.2165704007679404  C        
         C66       0.6275619801003056  0.7955445047244716  0.11200332285517357           C        
         C67       0.32939955427208184           0.818178175561585   0.17379839905200092          C        
         C68       0.41175759385922234           0.803650571645064   0.1384340479887168 C        
         C69       0.6229601072749558  0.6290539120632396  0.5384896256046031  C        
         C70       0.6600125928483996  0.5661364266405013  0.5001336224075491  C        
         C71       0.6089713399406728  0.8118509706398932  0.5859931181891201  C        
         C72       0.6301520238449881  0.7543527743066295  0.5423215795588796  C        
         C73       0.5465687220041496  0.7546166990614254  0.6218479923794482  C        
         C74       0.5423275523846682  0.8050197365874506  0.6646015295744915  C        
         C75       0.70149955767552    0.6334640445593486  0.4623784228821013  C        
         C76       0.668797210580238   0.8176660209500687  0.5036418928698292  C        
         C77       0.658853863745751   0.9243566340977204  0.5972407219918499  C        
         C78       0.6504024283455622  0.9693702994639841  0.6408325225051364  C        
         C79       0.8513746900262122  0.5669782231165724  0.3082361313651303  C        
         C80       0.8181372449187123  0.5334882793623534  0.3521437528865949  C        
         C81       0.7032799572276585  0.7583613022929617  0.4642548197704588  C        
         C82       0.8494551103253494  0.3702002650930091  0.28342959888953057           C        
         C83       0.7955445371716868  0.6275622478598021  0.3879969422056121  C        
         C84       0.8181780169926608  0.3293997894025522  0.3262013499840872  C        
         C85       0.8036506936822193  0.411757694453198   0.3615660165606668  C        
         C86       0.37704017993862426           0.3709459241023514  0.5384895072273985 C        
         C87       0.33998767354169246           0.4338633559621131  0.5001334976695123 C        
         C88       0.39102892278431894           0.1881488852198367  0.5859931111877767 C        
         C89       0.3698481251772204  0.2456472303123667  0.5423215626290663  C        
         C90       0.4534315639535722  0.24538317143747113           0.6218479410787799 C        
         C91       0.4576726700905995  0.19498007009140442           0.6646016838837551 C        
         C92       0.2985002753550225  0.36653569645957856           0.46237832356974806          C        
         C93       0.3312025024859999  0.18233395214193776           0.5036418551597367 C        
         C94       0.3411463148939782  0.07564350760594864           0.5972407434819986 C        
         C95       0.34959759242370647           0.03062963918566977           0.6408326728625099 C        
         C96       0.14862541157814343           0.4330218272640139  0.308236089663779  C        
         C97       0.18186273521824178           0.4665117209183762  0.35214369512248234          C        
         C98       0.2967196919838741  0.24163855583933655           0.46425473927535094          C        
         C99       0.15054479155022293           0.6297996650381618  0.28342952858940923          C        
         C100      0.20445536759966582           0.372437792451235   0.38799690903593664          C        
         C101      0.18182196756701183           0.670600106966612   0.3262012232307707 C        
         C102      0.1963495451861972  0.5882424435965826  0.3615659710261961  C        
         C103      0.6290532443062321  0.3770401027558674  0.038489714895976086         C        
         C104      0.5661362635406083  0.3399872564879458  0.0001333971092036812        C        
         C105      0.8118498364125123  0.3910280995304108  0.08599336382927125           C        
         C106      0.7543515519758376  0.36984718688985396           0.04232172158523406          C        
         C107      0.7546149752997264  0.4534308598186043  0.12184794806788735           C        
         C108      0.8050199360755153  0.45767273382332035           0.16460214325686054          C        
         C109      0.633463522992462   0.2984990587095468  0.9623785315554528  C        
         C110      0.817664693445123   0.3311998737087226  0.0036424680800413167        C        
         C111      0.9243553496943866  0.34114612503574854           0.09724029762202459          C        
         C112      0.9693702449108678  0.3495981554378296  0.14083265876007126           C        
         C113      0.5669775207472622  0.1486257032039197  0.8082363802875564  C        
         C114      0.5334881698100636  0.18186230990921426           0.852143553611825  C        
         C115      0.7583603795046286  0.2967165654375652  0.9642549574453432  C        
         C116      0.3702000748204947  0.15054460935878702           0.7834302492673674 C        
         C117      0.6275617974933694  0.2044546448627105  0.8879969228217776  C        
         C118      0.32939979890730453           0.18182050355583587           0.8262012898675613 C        
         C119      0.411757186215814   0.1963485070276566  0.861566652622992   C        
         C120      0.37094649597630847           0.6229596114229161  0.038489595452372245         C        
         C121      0.4338635197275674  0.6600126768441682  0.0001332672801939161        C        
         C122      0.1881498955034038  0.6089713894474686  0.08599331419191367           C        
         C123      0.2456483539746157  0.630152244274674   0.04232162774612145           C        
         C124      0.24538461075882928           0.546568800747249   0.12184796224069877          C        
         C125      0.19497993156177584           0.5423269309914406  0.1646022296563055 C        
         C126      0.36653620433485923           0.7015009916050351  0.9623783991176383 C        
         C127      0.1823352609346584  0.6687996981447262  0.003642393657236731         C        
         C128      0.07564462143348413           0.6588534429718556  0.09724034780775646          C        
         C129      0.030629683526000005          0.650401542107899   0.14083269729189885          C        
         C130      0.4330220823485338  0.8513748131154744  0.8082363392507814  C        
         C131      0.4665113911461161  0.8181379791884831  0.8521435322504505  C        
         C132      0.24163936108263062           0.7032832957045454  0.964254795495005  C        
         C133      0.6297997306414308  0.8494557784571058  0.7834303829011697  C        
         C134      0.3724376167969594  0.7955454844266856  0.8879968022073639  C        
         C135      0.6705998948806169  0.8181797439379463  0.8262014711844454  C        
         C136      0.588242325979991   0.8036517407767885  0.8615667070558412  C        
         N1        0.40575901158791905           0.9115632754719734  0.3243605144778292 N        
         N2        0.13063998647379396           0.4875207123888951  0.7259229309954212 N        
         N3        0.5942406482937067  0.08843645792825024           0.3243604249518124 N        
         N4        0.8693607933874156  0.5124792129533994  0.725922822622865   N        
         N5        0.08843675648670361           0.40575924659012663           0.8243600956588519 N        
         N6        0.512479528233525   0.1306396795499555  0.22592267956341933           N        
         N7        0.9115629318753017  0.5942406129591429  0.8243603129608318  N        
         N8        0.48752010717967975           0.869359741377762   0.22592264898067227          N        
         N9        0.5942410711771665  0.911563347107381   0.6756397717042683  N        
         N10       0.8693600824386066  0.4875206205248854  0.27407740199129793           N        
         N11       0.4057590402967137  0.08843660002481522           0.6756398771514626 N        
         N12       0.13064002356445215           0.5124792128932434  0.27407730359686516          N        
         N13       0.9115630066112087  0.40575913145234815           0.1756396424883455 N        
         N14       0.48752014835385465           0.13063981672970648           0.7740773695119469 N        
         N15       0.08843683087685686           0.5942405308042054  0.17563975829329073          N        
         N16       0.5124797225507475  0.8693607138027448  0.7740774386377058  N        
         O1        0.26062970710893624           0.5687609158938082  0.574616272512045  O        
         O2        0.7393701209516601  0.43123888390528287           0.5746164604953241 O        
         O3        0.4312393088966867  0.2606298057490127  0.0746164560276348  O        
         O4        0.568760383247274   0.7393702190706964  0.0746163073243831  O        
         O5        0.7393700709898614  0.5687606920107844  0.4253839140960486  O        
         O6        0.2606297357019808  0.4312393271469124  0.42538388632396096           O        
         O7        0.5687604978157238  0.26062969536624786           0.9253837363228288 O        
         O8        0.4312390777042652  0.7393703176359437  0.9253835703594878  O
_cell_angle_alpha                       89.99999320487254
_cell_angle_beta                        90.00000385699543
_cell_angle_gamma                       89.9999070992081
_cell_length_a                          11.196823430519
_cell_length_b                          11.19679645568472
_cell_length_c                          29.470200887193272
loop_
  _symmetry_equiv_pos_as_xyz
         'x, y, z' 
_symmetry_int_tables_number             1
_symmetry_space_group_name_H-M          'P 1'