
##########################################################################
#               Crystallographic Information Format file
#               Produced by PyCifRW module
#
#  This is a CIF file.  CIF has been adopted by the International
#  Union of Crystallography as the standard for data archiving and
#  transmission.
#
#  For information on this file format, follow the CIF links at
#  http://www.iucr.org
##########################################################################

data_0

loop_
  _atom_site_label
  _atom_site_fract_x
  _atom_site_fract_y
  _atom_site_fract_z
  _atom_site_type_symbol
         C1        0.7390977374290233  0.9693748670377812  0.2503995708731113  C        
         C2        0.2608182131200132  0.03062287118359443           0.2503873805856394 C        
         C3        0.2608048270893768  0.9694799173926575  0.2503919685297977  C        
         C4        0.7391120547997674  0.030519823607828584          0.25040509503419395          C        
         C5        0.6963704021850434  0.0634109175168459  0.25012875617583863           C        
         C6        0.3035475541280071  0.9365889247810242  0.25012508496090474           C        
         C7        0.30350885786764864           0.06344964067022484           0.2501207313940571 C        
         C8        0.696408083008136   0.9365485652518359  0.2501240167670251  C        
         C9        0.6526147764905039  0.03065052801038891           0.24999866713884106          C        
         C10       0.3473053713166535  0.9693485840064804  0.24999978783652904           C        
         C11       0.34732424607444706           0.030676429885660297          0.2499992278477943 C        
         C12       0.6525951304848926  0.9693237376543974  0.2499981980993405  C        
         C13       0.6013193217995825  0.04843144890922265           0.24988299575447542          C        
         C14       0.3986018504631737  0.9515661127213793  0.24988446267808007           C        
         C15       0.3985003645413007  0.048426566359525774          0.24988536551590484          C        
         C16       0.6014204007779416  0.9515752636268731  0.24988391283602265           C        
         C17       0.4999979721680266  0.5613568339021399  0.2501375113834633  C        
         C18       0.49999913121401207           0.43864285608825965           0.2501375141133306 C        
         C19       0.45519638093646425           0.5301410670759408  0.2500180466554893 C        
         C20       0.5448009732066442  0.4698583796160341  0.25001802988209687           C        
         C21       0.5448007442493301  0.5301421101514797  0.25001803146989765           C        
         C22       0.45519661105333925           0.46985785027788085           0.25001805098456714          C        
         H1        0.4203054965581703  0.5537230044091872  0.2500095650980478  H        
         H2        0.5796919707123978  0.4462765929224704  0.2500095732746526  H        
         H3        0.5796918050281359  0.5537235286932705  0.25000957058994294           H        
         H4        0.4203056454156099  0.44627632026780806           0.25000957066653257          H        
         C23       0.025771743809497084          0.9999948831735227  0.25003450698320023          C        
         C24       0.9741415283954529  0.9999995191287655  0.25003358901302053           C        
         C25       0.025335468566098918          0.8930764283984787  0.2500106367711424 C        
         C26       0.974579245319358   0.10691715519985893           0.2500097886004355 C        
         C27       0.9745691753145097  0.8930822677177525  0.250009416576285   C        
         C28       0.025345456428410275          0.10691325709939652           0.25001011584617094          C        
         C29       0.052907480044110076          0.9461524550129515  0.2500201010489531 C        
         C30       0.9470066093338376  0.05384186102344787           0.2500183630428505 C        
         C31       0.9470019085898906  0.9461667346418154  0.25001707361418046           C        
         C32       0.05291177530932288           0.053827946968786206          0.2500187641440053 C        
         C33       0.10418911403191136           0.9477536888229474  0.2500513097159581 C        
         C34       0.8957253010144276  0.05224219024171568           0.2500494762140689 C        
         C35       0.8957163831955797  0.9477931277652492  0.25004772837058775           C        
         C36       0.10419747818709017           0.05220074967349271           0.25004954487358283          C        
         H5        0.12705250051982458           0.9091028346751429  0.2500225072340343 H        
         H6        0.8728591982447367  0.09088951563346717           0.25002202778613497          H        
         H7        0.8728369238492184  0.9091558323376823  0.25002254902385296           H        
         H8        0.12707366830523137           0.09084207435276251           0.25002293856710084          H        
         H9        0.04561188505977219           0.8523292282790924  0.2500075954796416 H        
         H10       0.9543023912596513  0.147663579451692   0.2500071160034326  H        
         H11       0.9542971439781384  0.8523347177965311  0.25000691554477056           H        
         H12       0.045617388556268165          0.14766132494165135           0.25000733322991886          H        
         Ni1       0.49995881345395243           0.9999997716284992  0.24939162750641045          Ni       
         O1        0.7881157020229804  0.05030785568370452           0.25083601187274973          O        
         O2        0.21180057784127512           0.9496892253236139  0.25080763490189556          O        
         O3        0.21173267806422844           0.05042028614334307           0.2508025670520954 O        
         O4        0.7881815906300351  0.9495781545212744  0.2508271879345898  O        
         H13       0.6961232737028841  0.11046064126119956           0.2500529415564924 H        
         H14       0.3037879165231003  0.8895399470010512  0.2500509625592047  H        
         H15       0.30374956957622523           0.11050592592282198           0.25004923957050096          H        
         H16       0.6961597058398485  0.8894917674744659  0.2500509605033575  H        
         C37       0.47389698100471045           0.7191755456184884  0.25034402026886254          C        
         C38       0.5540744545669735  0.7694942850113108  0.2501139321148591  C        
         C39       0.5260517376399297  0.8205426536084542  0.2500026779887279  C        
         C40       0.5413828033007889  0.8809411037904111  0.24988272447345838           C        
         C41       0.526066320905639   0.2808157122877816  0.2503436442837382  C        
         C42       0.4458737313196255  0.23052420667729218           0.25011399179692695          C        
         C43       0.4738795826047999  0.1794627624351776  0.250002522661285   C        
         C44       0.4585411151238682  0.11906322403926407           0.24988253961233545          C        
         C45       0.5260722587915083  0.7191801081290438  0.2503436922562419  C        
         C46       0.44589529843417186           0.7694931996401005  0.25011421764611663          C        
         C47       0.4739313643657744  0.8205277705012958  0.25000291260681395           C        
         C48       0.45863355068285727           0.8809560239064609  0.24988249038076665          C        
         C49       0.473891036389672   0.28082789897854016           0.25034404116303033          C        
         C50       0.5540528113105152  0.23048753160224958           0.25011413822292794          C        
         C51       0.5259999592258567  0.17946603519910406           0.25000308551396766          C        
         C52       0.5412903098289568  0.1190387329080377  0.2498827681991203  C        
         O5        0.5428069338003726  0.6624302591078226  0.2506880037556684  O        
         O6        0.457170380113266   0.33758337482830497           0.2506892850522797 O        
         O7        0.457169707232954   0.6624216403478665  0.250689316447269   O        
         O8        0.5428076037191198  0.33756404945465274           0.2506880003213768 O        
         H17       0.5942610996510916  0.7698402532270721  0.25004647848867584           H        
         H18       0.4056871601074281  0.23020163150477807           0.2500466099036789 H        
         H19       0.40570714846918116           0.7698192152943739  0.25004678064749714          H        
         H20       0.5942410977605128  0.2301381909388395  0.25004662573962555           H        
         N1        0.5883081414035817  0.10397561453758809           0.24993726741021588          N        
         N2        0.4116159063060365  0.8960211098178039  0.24993701910531177           N        
         N3        0.4115965528560829  0.10394295039207085           0.24993798445451978          N        
         N4        0.5883272086325908  0.896059441641915   0.24993818032396986           N        
         B1        0.8163791042797874  0.999970369423439   0.25064174272599943           B        
         B2        0.18353694223959427           2.6499933778392278e-05        0.2506206921386822 B        
         N5        0.5708107123451057  6.11929315478681e-05          0.2497576565456055 N        
         N6        0.42910868440121835           0.9999383379410168  0.24975876797145796          N        
         B3        0.4999901060308501  0.627899549360097   0.25052268510197667           B        
         B4        0.49999656697305184           0.3721001217215437  0.25052267577432846          B        
         N7        0.4999500195939436  0.9168394565922229  0.24973614075822265           N        
         N8        0.499971358267116   0.08316011082782307           0.2497362386858182 N        
         N9        0.1298611776097948  0.9999695227006369  0.2501544761612668  N        
         N10       0.870053562284802   2.5692170162569132e-05        0.2501546130560527 N        
         C53       0.7391954901846832  0.9694796890242563  0.749608067834919   C        
         C54       0.26088907104121134           0.03052007356500891           0.7495948854383088 C        
         C55       0.26090204753728824           0.9693750352053486  0.7496004037073619 C        
         C56       0.7391834627911046  0.030622707409704405          0.7496126652352119 C        
         C57       0.696490499842873   0.06345105764342472           0.7498792682418982 C        
         C58       0.3035942420851436  0.9365473639092549  0.7498759762967269  C        
         C59       0.3036289892836362  0.0634095811337835  0.7498712309387441  C        
         C60       0.6964546858045451  0.9365901031734097  0.7498749448364093  C        
         C61       0.6526864571258683  0.030674573866042627          0.7500007792546172 C        
         C62       0.3473960501619856  0.9693255282306805  0.7500017968932944  C        
         C63       0.34739582095706834           0.03065270412532689           0.7500013182136334 C        
         C64       0.6526859459855843  0.9693465328583517  0.75000021510838    C        
         C65       0.6014834958283046  0.048401691214775555          0.7501146290463345 C        
         C66       0.39859789152655195           0.951600272702042   0.7501160664001175 C        
         C67       0.3986642585941707  0.04845608662134207           0.7501170142275219 C        
         C68       0.6014166829699616  0.9515414944937809  0.7501155415459294  C        
         C69       0.4999981937718551  0.5613568670886956  0.7498624882114326  C        
         C70       0.4999966764326429  0.4386428310912039  0.7498624872877253  C        
         C71       0.45519513981909293           0.5301422073367955  0.7499819641001975 C        
         C72       0.5447993582729065  0.4698577869061687  0.749981952783105   C        
         C73       0.5447994926999276  0.5301409697591741  0.7499819525700668  C        
         C74       0.4551950078960757  0.46985844829645396           0.7499819667305645 C        
         H21       0.4203040977124728  0.5537235258270903  0.749990431555556   H        
         H22       0.5796901703676488  0.44627628091981153           0.7499904268334993 H        
         H23       0.5796904135683775  0.5537229773327426  0.7499904241348299  H        
         H24       0.4203038453056344  0.44627665303266567           0.7499904365124946 H        
         C75       0.02585832575186602           0.9999997931617984  0.749966409340621  C        
         C76       0.9742283056083354  0.9999944937169621  0.7499654960113808  C        
         C77       0.025430610338458705          0.8930819445331769  0.7499905813045094 C        
         C78       0.974654619362805   0.10691349095219152           0.7499898863624914 C        
         C79       0.9746645477923405  0.8930762101455257  0.7499893647187456  C        
         C80       0.025420602420917357          0.10691723181756783           0.7499902099115372 C        
         C81       0.052998543035885574          0.9461668624206152  0.7499829212267582 C        
         C82       0.94708777185914    0.053827751677188146          0.7499812393396592 C        
         C83       0.947092578648584   0.9461526507972339  0.7499799028732772  C        
         C84       0.05299331160690699           0.05384149605013562           0.7499816328661021 C        
         C85       0.10428329094298198           0.9477930015125484  0.7499522677547465 C        
         C86       0.895802914440335   0.05220086491331268           0.7499504621698545 C        
         C87       0.8958109116216152  0.9477532048049575  0.7499486917438898  C        
         C88       0.10427473259046348           0.052242484294380734          0.7499505153237447 C        
         H25       0.12716287347093042           0.9091557483609927  0.7499774482711159 H        
         H26       0.8729262148601395  0.09084183130599321           0.7499770670338829 H        
         H27       0.8729474069876114  0.9091029605881767  0.7499774928975615  H        
         H28       0.12714053740220585           0.09088951796169764           0.7499779675336874 H        
         H29       0.045702613437381426          0.8523346737465034  0.7499930834217963 H        
         H30       0.9543824463674596  0.14766111061914194           0.7499926685030341 H        
         H31       0.9543879352167557  0.852329246861681   0.7499924077644315  H        
         H32       0.04569738733758272           0.14766358058373025           0.7499928825330118 H        
         Ni2       0.5000425619869477  0.9999997922215607  0.7506083892685954  Ni       
         O9        0.7882684476448194  0.0504190941885128  0.7491975559407787  O        
         O10       0.21181857074395852           0.9495794138103056  0.7491727626825356 O        
         O11       0.21188584652296075           0.05030900917758124           0.7491638581675546 O        
         O12       0.7881991162552916  0.9496879723116824  0.7491924854615744  O        
         H33       0.696251210189852   0.11050504815738348           0.7499507572749997 H        
         H34       0.3038411570909001  0.8894927283144869  0.7499490440314208  H        
         H35       0.3038773537142566  0.11046156994445148           0.7499470443400977 H        
         H36       0.6962130600463982  0.8895389732706308  0.7499490576827477  H        
         C89       0.47392733802664483           0.7191815113014978  0.7496563051150954 C        
         C90       0.5541033951278848  0.7694932462156219  0.7498858016426609  C        
         C91       0.5260715895456108  0.8205338298026758  0.7499970877783201  C        
         C92       0.5413905125125444  0.8809398703709487  0.7501174994842521  C        
         C93       0.5261087431581093  0.28082764373755253           0.7496559851708628 C        
         C94       0.4459496127054757  0.23048501433160412           0.7498858418286506 C        
         C95       0.4739995462879588  0.17945939854309195           0.7499969080044824 C        
         C96       0.45868857731337265           0.11905420879640076           0.750117266049461  C        
         C97       0.5261025230067058  0.7191741239124587  0.7496560220969593  C        
         C98       0.44592438498809583           0.7694946159809027  0.7498860547465237 C        
         C99       0.4739513793676117  0.8205361939874403  0.7499973189945224  C        
         C100      0.4586411918588118  0.8809576283510648  0.7501172188413706  C        
         C101      0.4739335454136237  0.28081599580523037           0.7496563110431886 C        
         C102      0.554128565779444   0.23052641784486635           0.7498860229948924 C        
         C103      0.5261197676071646  0.1794697572060121  0.7499974655668074  C        
         C104      0.5414378266691781  0.11904749029253582           0.7501174657834683 C        
         O13       0.542829049084184   0.6624217704275583  0.7493108198798534  O        
         O14       0.45719000092458323           0.337561220130124   0.7493118993330223 O        
         O15       0.45719182415425524           0.6624303678998861  0.7493119110970851 O        
         O16       0.5428272215610309  0.337585999796127   0.749310812949837   O        
         H37       0.5942945119368634  0.7698172788606107  0.7499532428787422  H        
         H38       0.4057583859156316  0.23013635147243727           0.7499533535795703 H        
         H39       0.4057404936649389  0.7698423800846314  0.7499535339597501  H        
         H40       0.5943123811622659  0.23020330665826758           0.7499533816257173 H        
         N11       0.5884151224610809  0.10395285769986798           0.7500620759937048 N        
         N12       0.41166381175587147           0.8960497033162347  0.750061826903051  N        
         N13       0.41170361881218026           0.103966125542348   0.7500626759368128 N        
         N14       0.5883750241762604  0.8960304296439636  0.7500629393609448  N        
         B5        0.8164638962035258  2.9386690784358493e-05        0.7493793901883561 B        
         B6        0.18362096550426948           0.9999674286149747  0.7493582049241913 B        
         N15       0.5708922731668618  0.9999739165436613  0.7502412329838116  N        
         N16       0.4291904338625861  2.5620689392367684e-05        0.7502423549988493 N        
         B7        0.5000052451751934  0.6278995324723752  0.7494773330868997  B        
         B8        0.5000026783334223  0.3721001413121158  0.7494773214764066  B        
         N17       0.500022753522302   0.9168396432941316  0.7502638485713321  N        
         N18       0.5000586831633953  0.08315993624130649           0.7502637701709995 N        
         N19       0.12994706478557283           2.569029646756707e-05         0.7498453828265027 N        
         N20       0.8701387310553187  0.999969425742455   0.7498455362508614  N
_cell_angle_alpha                       90.0000001827114
_cell_angle_beta                        89.99996917072355
_cell_angle_gamma                       90.00028369892641
_cell_length_a                          27.015989588932
_cell_length_b                          23.08021049238093
_cell_length_c                          7.686417659614513
loop_
  _symmetry_equiv_pos_as_xyz
         'x, y, z' 
_symmetry_int_tables_number             1
_symmetry_space_group_name_H-M          'P 1'