
##########################################################################
#               Crystallographic Information Format file
#               Produced by PyCifRW module
#
#  This is a CIF file.  CIF has been adopted by the International
#  Union of Crystallography as the standard for data archiving and
#  transmission.
#
#  For information on this file format, follow the CIF links at
#  http://www.iucr.org
##########################################################################

data_0

loop_
  _atom_site_label
  _atom_site_fract_x
  _atom_site_fract_y
  _atom_site_fract_z
  _atom_site_type_symbol
         B1        0.6184186964375646  0.6128846128585931  0.3929261470579699  B        
         B2        0.3816144359867006  0.3870747392177871  0.39289362065643846           B        
         B3        0.3815807931731394  0.6128838614224951  0.6070745028807251  B        
         B4        0.6183861715050095  0.3870738393584283  0.6071058540037881  B        
         B5        0.12046590992375959           0.8898403018295133  0.10799356064930836          B        
         B6        0.8795471948451988  0.11015441922585702           0.10800270220731775          B        
         B7        0.8795345291102648  0.8898396904926068  0.892007276102575   B        
         B8        0.1204520422297257  0.11015467915240049           0.8919980526288881 B        
         C1        0.8106201307801589  0.810141161736322   0.1835912886983886  C        
         C2        0.1894139386259423  0.1898312065297758  0.1835821657595513  C        
         C3        0.18937930721354998           0.8101409969623011  0.8164088847015999 C        
         C4        0.8105877462656864  0.18983263537848194           0.8164178178688989 C        
         C5        0.6906917505773543  0.6852589251458229  0.320261561223682   C        
         C6        0.3093243153867708  0.3147193999041753  0.32024222650696993           C        
         C7        0.3093083910584023  0.6852591305792421  0.6797386755661637  C        
         C8        0.6906755129446116  0.3147186053282048  0.6797583072097697  C        
         C9        0.6805194319549611  0.6768038615827237  0.21621618542338866           C        
         C10       0.3194986526526216  0.3231781036126649  0.21620089644672932           C        
         C11       0.3194805625673419  0.6768040376575444  0.7837843687366941  C        
         C12       0.6804984272144635  0.3231762688736256  0.7837995261519688  C        
         C13       0.7370510268502787  0.7365781503947109  0.1469453242015549  C        
         C14       0.26297447901396126           0.2633998806789707  0.14693010782932567          C        
         C15       0.2629497837206197  0.73657932533365    0.8530547051312716  C        
         C16       0.7370261544824322  0.2633998203952814  0.8530698566309216  C        
         C17       0.8267136269712808  0.8217100753373852  0.2865415500843901  C        
         C18       0.17332007724492196           0.1782603713282758  0.28653220429982235          C        
         C19       0.17328538677394426           0.8217092325701922  0.7134584285702504 C        
         C20       0.8266811118328214  0.17825977849929187           0.7134678256981387 C        
         C21       0.7670273299968239  0.759451496371451   0.35118084630510693           C        
         C22       0.232993264826544   0.2405282434935687  0.351167919687035   C        
         C23       0.23297265129577227           0.7594515405058752  0.6488194593429202 C        
         C24       0.7670085793980881  0.24052987760507938           0.6488332000730739 C        
         C25       0.30723084429721825           0.6864664304545236  0.31645812322923866          C        
         C26       0.6928824578944245  0.31353353742136314           0.3165227065391875 C        
         C27       0.6927696487108056  0.6864657338502798  0.6835422358101468  C        
         C28       0.30711791127490523           0.31353356080380135           0.6834775182353259 C        
         C29       0.19239470852455556           0.819204761821631   0.1827871085643613 C        
         C30       0.8076568347588201  0.18079660766461997           0.18281816859019562          C        
         C31       0.8076053065767027  0.8192041218212415  0.8172138636612727  C        
         C32       0.1923425562300492  0.18079673642180966           0.8171824452268839 C        
         C33       0.2665252387828589  0.8563527560395642  0.2542191241667004  C        
         C34       0.7335389446487607  0.14364641703691175           0.25426045458653457          C        
         C35       0.7334748883143656  0.8563520555648478  0.7457810661950712  C        
         C36       0.26646066844616917           0.14364624334198198           0.7457405727069473 C        
         C37       0.3234829141621625  0.7937693330331266  0.32063984628582565           C        
         C38       0.6766187333732212  0.20623555388427126           0.32069981352422605          C        
         C39       0.6765178432163053  0.7937683267588964  0.6793604681150248  C        
         C40       0.32338064880738837           0.2062357511111655  0.6793010452337903 C        
         C41       0.23533188925912596           0.6434557025071158  0.246870510635289  C        
         C42       0.7647725777510308  0.3565509493021115  0.24692959738483172           C        
         C43       0.7646680699254799  0.6434549816571629  0.7531301651493936  C        
         C44       0.23522770188463327           0.35655135327853976           0.7530701744762738 C        
         C45       0.18061997571790916           0.7109247594916852  0.18319411966260893          C        
         C46       0.8194410449907313  0.2890775599209871  0.18322680405293487           C        
         C47       0.8193796417586307  0.7109238745235563  0.8168065763298191  C        
         C48       0.18055925015468055           0.2890778249648534  0.8167733766241592 C        
         H1        0.7247023206554544  0.7246870000103262  0.06746547603385786           H        
         H2        0.2753236578779513  0.27526623900702973           0.06744716767893996          H        
         H3        0.27529769795850406           0.7246876675052089  0.9325346907899628 H        
         H4        0.72467880275801    0.27526405788494873           0.9325533147231165 H        
         H5        0.8844157612780387  0.8771354347996565  0.3168740409635547  H        
         H6        0.11561010153532927           0.12284751505969814           0.3168768879024216 H        
         H7        0.11558413174849302           0.8771356482145687  0.6831260450462123 H        
         H8        0.8843907062810773  0.12284752012805004           0.683121463746544  H        
         H9        0.3787032153492921  0.8291817745759376  0.37399392174526414           H        
         H10       0.6214079506325595  0.1708522609415507  0.37407894442965856           H        
         H11       0.6212971922185814  0.8291792986476265  0.626005687233649   H        
         H12       0.37859001478897053           0.17085229756122255           0.6259211470900458 H        
         H13       0.22178406104755777           0.560426188137691   0.24182925753445994          H        
         H14       0.7783375215600986  0.4395797466334517  0.24189661685586508           H        
         H15       0.7782153496373614  0.5604253100726403  0.7581699756928676  H        
         H16       0.22166111124470322           0.43957991035880745           0.7581028971734401 H        
         F1        0.6111270980067047  0.6040816369864644  0.17891432680887853           F        
         F2        0.3888863497401702  0.3959108788578353  0.17891565852287183           F        
         F3        0.3888718405537604  0.604080953124146   0.8210860809881385  F        
         F4        0.6111088814598937  0.39590729339626834           0.8210837573019997 F        
         F5        0.7869928386619935  0.7732958913549796  0.4504043085354844  F        
         F6        0.21300941943291773           0.22670143699250403           0.45039200417618963          F        
         F7        0.21300738148431647           0.7732960973038431  0.5495958153562414 F        
         F8        0.7869924689680704  0.22670300601935225           0.549609189594602  F        
         F9        0.28654915956320387           0.9600371039235245  0.26233064892044344          F        
         F10       0.713460219269583   0.03996804739472545           0.26233611059954853          F        
         F11       0.7134510805368576  0.9600363512323936  0.7376689259361181  F        
         F12       0.2865389417677297  0.039968026171142236          0.7376639382971922 F        
         F13       0.11058090280252926           0.666823432508832   0.11669586260711141          F        
         F14       0.8894266906785664  0.333179592543522   0.1166841996838764  F        
         F15       0.8894191535503984  0.6668229857514821  0.8833045419069595  F        
         F16       0.1105730077000138  0.3331794177210582  0.883315404116976   F        
         O1        0.49610283797234767           0.612253462821614   0.6443209137865653 O        
         O2        0.5038364972058299  0.3876439277731058  0.6443173882767792  O        
         O3        0.5038968442979023  0.6122527359300053  0.35567963474705805           O        
         O4        0.4961641972873054  0.3876429752513639  0.35568176140316804           O        
         O5        0.620175042595372   0.6520387396932934  0.4972386809973727  O        
         O6        0.37981450235653846           0.3479210407181476  0.4971976128243584 O        
         O7        0.3798245526670061  0.6520386879840271  0.502762193813272   O        
         O8        0.6201864385824514  0.3479209702458101  0.5028020368986741  O        
         O9        0.6624548783775696  0.5041939712213014  0.3897335526644074  O        
         O10       0.3375894896098794  0.49577106930998377           0.3896525010369982 O        
         O11       0.3375454614630891  0.5041931243885273  0.6102673032659457  O        
         O12       0.662410890677304   0.49577079021896664           0.6103490260366199 O        
         O13       0.004653671695870027          0.8884922880736885  0.14280292336561323          O        
         O14       0.9953703711207952  0.11150888935232763           0.14277684173089644          O        
         O15       0.9953462456044607  0.888492779382471   0.8571971967467777  O        
         O16       0.0046296913355590545         0.11150887525671067           0.857223519488625  O        
         O17       0.16070677872868355           0.0017368604485517025         0.8936518816270683 O        
         O18       0.8392791148349716  0.9982528832712199  0.8936812453415066  O        
         O19       0.8392935985118916  0.0017359245831694015         0.10635028912186134          O        
         O20       0.16071985068012912           0.9982532520199944  0.10632069491997545          O        
         O21       0.8746667995302095  0.8449957331194757  0.9955840947441916  O        
         O22       0.12535616000965685           0.15499978626316296           0.9955699566843851 O        
         O23       0.12533287295196877           0.8449962400210669  0.004416057232857527         O        
         O24       0.8746435358987414  0.15500070608985944           0.004430063216189467         O        
         P1        0.8869683155025707  0.8906670532337936  0.10174907573313817           P        
         P2        0.11305606464614008           0.10932514728000844           0.10173277222772098          P        
         P3        0.11303230357323478           0.890666977080127   0.898252112689234  P        
         P4        0.8869429560180946  0.1093257363380762  0.8982687831867531  P        
         P5        0.38633756235877553           0.6061948311774945  0.3960251692721225 P        
         P6        0.613709915065347   0.393766184238498   0.3960641745376043  P        
         P7        0.6136624898491038  0.6061944326635748  0.6039752780276691  P        
         P8        0.3862908952189352  0.39376544537067504           0.603935064095138  P
_cell_angle_alpha                       89.99992740391419
_cell_angle_beta                        89.99993879826945
_cell_angle_gamma                       90.00006930050591
_cell_length_a                          12.292358144858
_cell_length_b                          12.899303683360436
_cell_length_c                          13.392330177667391
loop_
  _symmetry_equiv_pos_as_xyz
         'x, y, z' 
_symmetry_int_tables_number             1
_symmetry_space_group_name_H-M          'P 1'