
##########################################################################
#               Crystallographic Information Format file
#               Produced by PyCifRW module
#
#  This is a CIF file.  CIF has been adopted by the International
#  Union of Crystallography as the standard for data archiving and
#  transmission.
#
#  For information on this file format, follow the CIF links at
#  http://www.iucr.org
##########################################################################

data_0

loop_
  _atom_site_label
  _atom_site_fract_x
  _atom_site_fract_y
  _atom_site_fract_z
  _atom_site_type_symbol
         B1        0.8938124547181161  0.9090500389349455  0.8743812676745853  B        
         B2        0.8919578016577344  0.13657263211058818           0.10063123150582565          B        
         B3        0.11767295423366812           0.9123349535370143  0.10118228609949492          B        
         B4        0.11455475853580273           0.13823461504070259           0.8730987703514894 B        
         B5        0.3890292915654957  0.412091041742505   0.3756906562882919  B        
         B6        0.6178708522980566  0.4123875821750456  0.600174296535951   B        
         B7        0.3911835603375327  0.6377377439838007  0.597831092762321   B        
         B8        0.6198339455345574  0.6333280287323975  0.37361414614455596           B        
         C1        0.8199973247192707  0.20830047872377444           0.17284957834931833          C        
         C2        0.6902757595957204  0.33199380726220623           0.29974362416087325          C        
         C3        0.1901102444015751  0.8403374830386336  0.17263288548779976           C        
         C4        0.31999756217676495           0.7117797323568741  0.2945840975017407 C        
         C5        0.1859429897953984  0.21127825299312683           0.8015612608354445 C        
         C6        0.3161181516056113  0.33743344880856935           0.6772262356122702 C        
         C7        0.8221429363052638  0.8366708830767852  0.8025079655451676  C        
         C8        0.6932874707148801  0.7138735880517221  0.673597100545209   C        
         C9        0.8111158406666238  0.20890527032585848           0.7999967741724812 C        
         C10       0.6892819481813118  0.3400403244341526  0.672406436546325   C        
         C11       0.19452425439718177           0.21202585395155785           0.17412734580791872          C        
         C12       0.3164688737287551  0.3408922853189702  0.30353914454603703           C        
         C13       0.19762003557486318           0.8394088288308185  0.7992517055643525 C        
         C14       0.31952077491568465           0.7100231582640808  0.6699340273351274 C        
         C15       0.8153865519109901  0.8359306133938047  0.17565443182490895           C        
         C16       0.6920366015456028  0.7048628475237092  0.30155006535723705           C        
         C17       0.8645942306136774  0.7788293217343464  0.7197366678868214  C        
         C18       0.8015116143352191  0.7179117162955206  0.6554474713558871  C        
         C19       0.6491580360525883  0.7712345715293972  0.7557788019531585  C        
         C20       0.7136625648593     0.831714535256457   0.8190751467804223  C        
         C21       0.7723838921590449  0.30306591699573543           0.8398200263555314 C        
         C22       0.712225772450906   0.36741267165220104           0.7760250642692597 C        
         C23       0.7283086886804537  0.24520210595126404           0.6343820727943756 C        
         C24       0.7886623396741679  0.1797081548287039  0.6968103756900342  C        
         C25       0.25376119914165607           0.2619500392200857  0.3462449475123269 C        
         C26       0.1931840146578487  0.197744719442435   0.28284929124510294           C        
         C27       0.25657611038900513           0.29044901279950136           0.12973144192690386          C        
         C28       0.31667083222117093           0.3537980863102974  0.19459713774263243          C        
         C29       0.23135137628944935           0.6698448398223961  0.24561186631400772          C        
         C30       0.16759341368077124           0.734179122355823   0.1854286888687825 C        
         C31       0.2794466646119105  0.8805513151417886  0.2219721841668147  C        
         C32       0.3442815460800856  0.8175950168035477  0.28247016135565195           C        
         C33       0.7107999080655496  0.19646433480084155           0.1709208482329763 C        
         C34       0.645769779873737   0.25734542688689016           0.23337530297784792          C        
         C35       0.79926302456649    0.3450034131033159  0.3030370050419149  C        
         C36       0.8628025884971291  0.28341808126353557           0.23991944083982322          C        
         C37       0.2093007489660318  0.3609483891595712  0.6868835317911082  C        
         C38       0.1454984431462918  0.2980236943016272  0.7485661130723837  C        
         C39       0.29307738578130127           0.18940481504366238           0.7911043869315172 C        
         C40       0.3582642868150605  0.25127121594848906           0.729791476027442  C        
         C41       0.25935288456356204           0.7910525946052885  0.6274868445322483 C        
         C42       0.19886745486471555           0.8555177955266551  0.6907871848915313 C        
         C43       0.25733399534972234           0.7590617486248785  0.8433875174249968 C        
         C44       0.3173967228128855  0.6955502021643142  0.7786425926082913  C        
         C45       0.7359182156557201  0.6683511603534709  0.20803480256425702           C        
         C46       0.7969866087495466  0.7326711746407101  0.1451157143023826  C        
         C47       0.7720968141646083  0.8741289540179129  0.26874253707459966           C        
         C48       0.7112135180836324  0.8085021166874415  0.3304767884405815  C        
         H1        0.948467979309777   0.7811385833367634  0.7057714080649592  H        
         H2        0.8353763109726486  0.674221417996128   0.5911667846142332  H        
         H3        0.5651965968977446  0.7688418999238912  0.768882520083079   H        
         H4        0.6792196387054418  0.8757793853965625  0.8828671566123131  H        
         H5        0.7887601143272988  0.3248615244089286  0.9201775830783058  H        
         H6        0.6828205836751536  0.44054437959576775           0.8068901214269779 H        
         H7        0.7117176216958409  0.22254594972054328           0.5542602976760329 H        
         H8        0.8178667234152497  0.10623758699416819           0.6667077919957827 H        
         H9        0.25227345825078035           0.25094067986669083           0.4304280074754861 H        
         H10       0.14557165978600847           0.13641333062202785           0.31687943983148587          H        
         H11       0.25780939631660915           0.30063572254441295           0.045473419081119015         H        
         H12       0.36452324189826696           0.41471273479876697           0.16000302871763944          H        
         H13       0.21334907103891995           0.5876736153573325  0.25443226021803805          H        
         H14       0.0984597718181962  0.7016868936758249  0.14830207662475095           H        
         H15       0.29819736528440116           0.9626252103128747  0.21333600087408858          H        
         H16       0.41366953959304115           0.849431926808394   0.3195857701488508 H        
         H17       0.6760768836680519  0.13885499187741918           0.11928053727881087          H        
         H18       0.5613600746584585  0.24766530906948092           0.23141170007105263          H        
         H19       0.8335642746453357  0.4027405525030047  0.35472884024486506           H        
         H20       0.9471397777318745  0.2938991967719791  0.24232889862861473           H        
         H21       0.17680187985769372           0.42805895822917045           0.6466250486284103 H        
         H22       0.0628128865321867  0.3163533198574465  0.7558606521185166  H        
         H23       0.32607880498318165           0.12256592763489974           0.8315171265687359 H        
         H24       0.4410355008675015  0.23371892750638537           0.722232838950475  H        
         H25       0.25955161389802733           0.8034190870263436  0.5434755479381099 H        
         H26       0.15335389242786632           0.9184466697526589  0.656867750166126  H        
         H27       0.256682697061036   0.7473512741738884  0.9274464064373824  H        
         H28       0.36298326143950144           0.6328814677569264  0.8130868172810677 H        
         H29       0.7217815582571758  0.5883947967062787  0.18431993470110708           H        
         H30       0.8296213015785773  0.7035544669521324  0.07236237251785474           H        
         H31       0.7860270689949894  0.9543580101427126  0.29142200096543475           H        
         H32       0.6780965574543446  0.8383269058438275  0.4027898100396961  H        
         O1        0.8896159967927559  0.026975602773101653          0.14166720199179   O        
         O2        0.889553945806301   0.019009332263554047          0.8336045466010231 O        
         O3        0.848855795470313   0.13703376694054392           0.9916536273926511 O        
         O4        0.8523687551135526  0.9079498318700537  0.9837932923690353  O        
         O5        0.11930092248740062           0.021519463268031946          0.14133206249374394          O        
         O6        0.15983022874409686           0.911359700126625   0.9911498273168181 O        
         O7        0.11861998256022309           0.028862935110993193          0.8325807355628643 O        
         O8        0.15830540984032943           0.13861358326189077           0.9825344648804676 O        
         O9        0.003908380741618034          0.8710441358344578  0.8721978902532376 O        
         O10       0.00482901115373946           0.17677553523298747           0.8745659174576341 O        
         O11       0.0013561630592402452         0.17660398350166043           0.1010469157542904 O        
         O12       0.008538705753898368          0.8712563331000185  0.10146040823191799          O        
         O13       0.39047916589228693           0.5289999661843416  0.6401278653632632 O        
         O14       0.6577293074270485  0.4093636157766692  0.49039328511102387           O        
         O15       0.5075411595215742  0.37087690949485175           0.6011560396021599 O        
         O16       0.4986107160825022  0.3690288642039026  0.3735303163754043  O        
         O17       0.3492870341950191  0.4124206143543143  0.48490690743071097           O        
         O18       0.39071594798060544           0.5204766187651916  0.33295462868163794          O        
         O19       0.617871650826743   0.5212183375591296  0.6405196041811179  O        
         O20       0.5016539200309033  0.6785358887095017  0.6000310213100319  O        
         O21       0.35142144390266933           0.6392551061137822  0.488368666568482  O        
         O22       0.5104386094297633  0.6763729243927407  0.37335726387675416           O        
         O23       0.6180808834956021  0.5245219121676099  0.33328163228763896           O        
         O24       0.6606184823089581  0.6353718478181603  0.48331772612194096           O        
         P1        0.11413085222255598           0.13260511946689799           0.09462175874647274          P        
         P2        0.8958000875340617  0.9155723117906046  0.09640060361391609           P        
         P3        0.8927772200363727  0.13030544949305922           0.8791664461926582 P        
         P4        0.11580304808233831           0.9174436802472132  0.8788382344652914 P        
         P5        0.6110457200640872  0.41293686311945677           0.37881837619938435          P        
         P6        0.397931474125578   0.632473857066184   0.3765756360696832  P        
         P7        0.6135534781970053  0.6330476115400202  0.5948065072429473  P        
         P8        0.3959206570595026  0.41670133040667773           0.5967865162297517 P
_cell_angle_alpha                       89.97194076926742
_cell_angle_beta                        89.98941952678324
_cell_angle_gamma                       89.99624971004002
_cell_length_a                          12.799317352639
_cell_length_b                          12.86860873967178
_cell_length_c                          12.819929653454816
loop_
  _symmetry_equiv_pos_as_xyz
         'x, y, z' 
_symmetry_int_tables_number             1
_symmetry_space_group_name_H-M          'P 1'