
##########################################################################
#               Crystallographic Information Format file
#               Produced by PyCifRW module
#
#  This is a CIF file.  CIF has been adopted by the International
#  Union of Crystallography as the standard for data archiving and
#  transmission.
#
#  For information on this file format, follow the CIF links at
#  http://www.iucr.org
##########################################################################

data_0

loop_
  _atom_site_label
  _atom_site_fract_x
  _atom_site_fract_y
  _atom_site_fract_z
  _atom_site_type_symbol
         C1        0.4973892478743213  0.11344771299365305           0.36292217566248686          C        
         C2        0.430555563616064   0.8146594741523887  0.36294265502535694           C        
         C3        0.8146418510077549  0.4973636052540206  0.8629379913336547  C        
         C4        0.11342642629855004           0.43052672954661014           0.8629267697054565 C        
         C5        0.4305958714631157  0.814637467614996   0.41374841214764657           C        
         C6        0.4974018381531025  0.11346375650325391           0.41372903511564485          C        
         C7        0.11345488029336816           0.4305591636795516  0.9137331365627803 C        
         C8        0.8146323172345014  0.4973713039922685  0.9137440504058986  C        
         C9        0.554195453958019   0.20826140192459458           0.3261894116985163 C        
         C10       0.3737962234014441  0.7198293843408129  0.32620812911890656           C        
         C11       0.7198569373738465  0.5542042703458765  0.8261916290870076  C        
         C12       0.20829119591324527           0.37380585567757646           0.8262184440736713 C        
         C13       0.37393599496749874           0.7196763646682949  0.45037790894594604          C        
         C14       0.5541757681720233  0.20835635089783927           0.45037262756114266          C        
         C15       0.20840890927467445           0.3738983134364226  0.9503745327313936 C        
         C16       0.7197518281574701  0.5541553780159691  0.9503890854777444  C        
         C17       0.554845195180823   0.26082309678685384           0.2943225974637199 C        
         C18       0.3731665392190633  0.6672671686938639  0.2943447372065637  C        
         C19       0.6673089501464764  0.5548682267408716  0.7943155782477838  C        
         C20       0.26087108787311397           0.37319437715725196           0.7943685764594107 C        
         C21       0.3733247795467716  0.6671207044481945  0.48224824149770895           C        
         C22       0.5548381086000941  0.26090266149462826           0.48225246810117256          C        
         C23       0.26095195914758834           0.3732897008913968  0.9822532451787782 C        
         C24       0.6671947477079041  0.5548195527002282  0.9822614241963282  C        
         C25       0.5018076641902743  0.2752905696228682  0.26448308916556595           C        
         C26       0.42621536928894826           0.6528083932652248  0.2645079748144009 C        
         C27       0.6528181844471219  0.5018242348190693  0.7644873208576722  C        
         C28       0.27530265005998544           0.4262310930509285  0.7645121597592708 C        
         C29       0.42631103118997643           0.6527826003754075  0.5121807084513118 C        
         C30       0.5018574366052073  0.2752934086001624  0.5121838047356848  C        
         C31       0.2752943908272407  0.42628422774148506           0.012179022482615775         C        
         C32       0.6527905588701806  0.5018386079017689  0.012185978692542957         C        
         C33       0.4478135656033379  0.23553893606954726           0.26699880742527726          C        
         C34       0.48020465809484486           0.6925592735868591  0.2670401422676866 C        
         C35       0.6925333354041538  0.4478095997384277  0.7670285512949201  C        
         C36       0.2355114137023725  0.48019392203193423           0.7670105860482328 C        
         C37       0.48021746439218166           0.6926625494141941  0.5097536687497518 C        
         C38       0.4479085890955042  0.2354778064086994  0.5097422183946225  C        
         C39       0.2354254284404688  0.4801939322101494  0.009732933026592068         C        
         C40       0.6925994372706427  0.44788371218264494           0.009749408849910273         C        
         C41       0.4471067130251239  0.1832296678777022  0.2987136264545121  C        
         C42       0.48089291492243846           0.7448640175989548  0.29875601234984417          C        
         C43       0.7448238979380091  0.4470855414638307  0.7987552297159846  C        
         C44       0.18318441997157256           0.48086254907972714           0.7987099780526008 C        
         C45       0.48089391591874436           0.7449573655450984  0.47802339660456594          C        
         C46       0.4471859000792762  0.18319019135053707           0.4780094042877434 C        
         C47       0.18314356898215345           0.4808676487346155  0.977995118814339  C        
         C48       0.7448974930786871  0.4471581609196138  0.9780230090227563  C        
         C49       0.49999153010747033           0.169225074050962   0.3293776653990305 C        
         C50       0.4279892338978117  0.7588749895977036  0.3294038155748022  C        
         C51       0.7588590423439268  0.4999799246439217  0.8294024359927196  C        
         C52       0.1692043764844331  0.427971776498226   0.8293797674752337  C        
         C53       0.4280564912068131  0.7588418155463956  0.44727467471508414           C        
         C54       0.5000156495628743  0.16925069424139752           0.44726046193955205          C        
         C55       0.16925222037214036           0.4280220433508401  0.9472548977204386 C        
         C56       0.758847132500478   0.49998872077703127           0.9472789861445348 C        
         C57       0.46404114066968805           0.46407112856542426           0.2047611277662715 C        
         C58       0.4640355248858465  0.4640334569650807  0.7047630725183521  C        
         C59       0.4640801137477581  0.46403494570802595           0.5719203018234053 C        
         C60       0.46401552724569467           0.4640909549851322  0.07191800593923303          C        
         C61       0.503996792537469   0.3309479859207235  0.2313791518164362  C        
         C62       0.42404894139309707           0.5971729175654966  0.23138497871548497          C        
         C63       0.5971781661213296  0.5040207659118682  0.7313714521277231  C        
         C64       0.3309546424332715  0.4240721960352405  0.7314010338860633  C        
         C65       0.42415668587906813           0.5971036137141003  0.5452598719577345 C        
         C66       0.5040259270876801  0.3309624005619156  0.5452719074327229  C        
         C67       0.33097172750513665           0.4241483136914456  0.04525786323529482          C        
         C68       0.5971226482993653  0.504026692035405   0.04527625832074221           C        
         C69       0.4553825701753202  0.9327636619095216  0.38835817023824043           C        
         C70       0.472462944273551   0.995361685695257   0.3883549812942084  C        
         C71       0.9953236566124434  0.4553400188432206  0.8883559461305826  C        
         C72       0.9327257812988696  0.47241741425862843           0.8883575924153647 C        
         C73       0.4036762383459817  0.4655222411918565  0.10482324026048018           C        
         C74       0.5243637009290666  0.462633688021775   0.10480550572907896           C        
         C75       0.46262002263806384           0.40369051285720386           0.6048171143036298 C        
         C76       0.4655121431683572  0.5243784931047221  0.6048163873492574  C        
         C77       0.5243928857012641  0.4625929935661686  0.6718801897225652  C        
         C78       0.4036988964815353  0.4654798714415119  0.6718672232316568  C        
         C79       0.46547964375767215           0.5244205172201636  0.17187185513069878          C        
         C80       0.462591724299371   0.4037261179449002  0.17187086069529386           C        
         C81       0.4029329558008445  0.4059393046985547  0.1384125488994116  C        
         C82       0.5251444022403312  0.5221995114763769  0.13840986772468641           C        
         C83       0.5221831462590285  0.4029306390937425  0.6384201605093981  C        
         C84       0.4059267978417472  0.5251412384940773  0.6384067124842616  C        
         C85       0.5251650494630611  0.5221601504263644  0.638279246138247   C        
         C86       0.40293640984076556           0.40591659389079937           0.6382606904013075 C        
         C87       0.4059109087155012  0.5251898866963371  0.13827528565210725           C        
         C88       0.5221523914548838  0.40296444375600055           0.13825976877246263          C        
         N1        0.456932331696962   0.34638233170969035           0.20327738061200964          N        
         N2        0.47113325850703136           0.5817491752313226  0.20329270593673382          N        
         N3        0.581717327170821   0.45693080758890287           0.7032996712953291 N        
         N4        0.34635167086133767           0.4711308698066347  0.7032749351132835 N        
         N5        0.47116550738635593           0.581753931335605   0.5734445920691492 N        
         N6        0.45699477658150844           0.3463195396455159  0.5734411978256653 N        
         N7        0.34628652478205113           0.4711497876421921  0.07346679441250165          N        
         N8        0.5817173942000152  0.45698114620803176           0.07341228525726858          N        
         S1        0.44237977515458876           0.8886523822059048  0.4434632008558389 S        
         S2        0.48550722562647347           0.039469064277218   0.44345229059889946          S        
         S3        0.03943596654832326           0.44233856580178094           0.9434557146853294 S        
         S4        0.8886186327778308  0.48545823687680223           0.9434602018514516 S        
         S5        0.4854780505688815  0.03944071502972318           0.3332351991324755 S        
         S6        0.44230326348699134           0.8886915113778598  0.33324699309759603          S        
         S7        0.8886455395283732  0.4854235121774533  0.8332412788505641  S        
         S8        0.03939466335693708           0.44225506758229605           0.8332413214719011 S        
         H1        0.4069654830878734  0.24713004436679273           0.24371471354057483          H        
         H2        0.5210632724065155  0.6809680801433324  0.24376255959406623           H        
         H3        0.6809291495853912  0.40695551639452343           0.7437534108911523 H        
         H4        0.24708719388093095           0.5210439569537717  0.7437192619670239 H        
         H5        0.5210236454115691  0.6811811593473341  0.5331162121491944  H        
         H6        0.4071063907563473  0.2470054421534593  0.5331000339179957  H        
         H7        0.24690833905557022           0.5210097312684651  0.03308555382282444          H        
         H8        0.6810603086818274  0.4070843635979261  0.03310698013229364           H        
         H9        0.405306182397173   0.15264226973254236           0.3007283935960472 H        
         H10       0.5226937336021531  0.7754462705955514  0.30077626434095106           H        
         H11       0.775376348893001   0.40526423318438776           0.8007894625896279 H        
         H12       0.15256277710526345           0.5226373702649652  0.8007029730350687 H        
         H13       0.5226369359718522  0.7756305045421515  0.4760670334310982  H        
         H14       0.4054082919834324  0.15257069896460526           0.47604590395450136          H        
         H15       0.15249216319445927           0.5226222606941294  0.9760207119620723 H        
         H16       0.7755241482507187  0.40538422143289277           0.9760658377732077 H        
         H17       0.5488461803704888  0.3582558237195418  0.23273522393237922           H        
         H18       0.3791908258488784  0.5698767107247934  0.23271255939627591           H        
         H19       0.569908833640766   0.54889355847354    0.7326906239936909  H        
         H20       0.35829186298804705           0.37924197213403554           0.7327709224858278 H        
         H21       0.37937859007266206           0.5696866653062487  0.5437995659756142 H        
         H22       0.548813624046995   0.35836525360230753           0.5438251082829112 H        
         H23       0.35842453633365956           0.3793939580425901  0.04377123100737038          H        
         H24       0.5697696572872     0.5488446833265868  0.043866911909136753         H        
         H25       0.3599971563445086  0.4060929372677987  0.1618640787638621  H        
         H26       0.5680743417543512  0.5219800959119967  0.16186214483848546           H        
         H27       0.5219918173292634  0.3599979629964996  0.6618735996862503  H        
         H28       0.4061094564318304  0.5680749472806893  0.661856829856182   H        
         H29       0.5680989781867058  0.5219590214809615  0.6148244461108355  H        
         H30       0.3600221695005066  0.4061417515134258  0.6147908374263035  H        
         H31       0.4061323522972401  0.5681128815181474  0.11480985780757855           H        
         H32       0.5219474912618093  0.3600384938739814  0.11480092241760113           H        
         H33       0.40159660935480995           0.36221989018514833           0.11590577030954984          H        
         H34       0.5265351207980126  0.5659376255617792  0.11592630918716956           H        
         H35       0.5659164758272546  0.40157109185623124           0.6159263508097815 H        
         H36       0.3622038083015277  0.5265065034855828  0.6159092435775576  H        
         H37       0.5265275377418898  0.5659045868176841  0.6607538614412515  H        
         H38       0.4015315565437954  0.3621715597795525  0.6607345996442192  H        
         H39       0.3621696213095993  0.5265840630864893  0.16075618407670747           H        
         H40       0.5658999003144166  0.40159439759791543           0.16072741465154008          H        
         H41       0.5961395885303913  0.1965534086389461  0.3480674291422807  H        
         H42       0.33184236594481326           0.7315343441491806  0.3480802883394646 H        
         H43       0.7315756593912347  0.596153988554255   0.8480612029610887  H        
         H44       0.196600415980512   0.331860226898228   0.8481039805788188  H        
         H45       0.3320230462070904  0.7312805506654261  0.42843160729197605           H        
         H46       0.5960827769633574  0.1967177623389513  0.428424767063169   H        
         H47       0.19681296286097835           0.3319780139019771  0.9284323998618086 H        
         H48       0.7314118852818964  0.5960607687769357  0.9284467100894978  H        
         H49       0.5970946843107812  0.2908592335385697  0.2921719408795749  H        
         H50       0.3309198260564193  0.6372299051574369  0.2921939502637334  H        
         H51       0.6373060314546087  0.5971373739422595  0.7921469394169917  H        
         H52       0.2909461802405348  0.33097231825355544           0.7922432587752891 H        
         H53       0.33113547963485385           0.6369922023238982  0.484340934208135  H        
         H54       0.5970568090023691  0.29098642207245573           0.48434316997464033          H        
         H55       0.2910721269857468  0.33109701213181    0.9843493880907711  H        
         H56       0.6371166528634062  0.5970417618589583  0.9843596936520613  H        
         H57       0.46343728798505585           0.42179723844029116           0.7290010290522425 H        
         H58       0.4646169730258589  0.5062682103491933  0.7290018779493364  H        
         H59       0.506287039335006   0.463485268924272   0.22898530787592442           H        
         H60       0.42181513013924615           0.46466305090471605           0.22901279487210913          H        
         H61       0.46460325431917127           0.50634254570744    0.04769539379378751          H        
         H62       0.4634332206320931  0.4218692251836772  0.04766629080422916           H        
         H63       0.42185618230005956           0.46461893178690805           0.5476734900919226 H        
         H64       0.5063299854847443  0.4634507282274787  0.5476934118372571  H
_cell_angle_alpha                       89.99842814229635
_cell_angle_beta                        89.99336595687623
_cell_angle_gamma                       90.00111606864749
_cell_length_a                          20.981234973741
_cell_length_b                          20.981149291452486
_cell_length_c                          26.8162870677116
loop_
  _symmetry_equiv_pos_as_xyz
         'x, y, z' 
_symmetry_int_tables_number             1
_symmetry_space_group_name_H-M          'P 1'