
##########################################################################
#               Crystallographic Information Format file
#               Produced by PyCifRW module
#
#  This is a CIF file.  CIF has been adopted by the International
#  Union of Crystallography as the standard for data archiving and
#  transmission.
#
#  For information on this file format, follow the CIF links at
#  http://www.iucr.org
##########################################################################

data_0

loop_
  _atom_site_label
  _atom_site_fract_x
  _atom_site_fract_y
  _atom_site_fract_z
  _atom_site_type_symbol
         Zn1       0.4989767594546311  0.49237631483425004           0.24765041990641312          Zn       
         C1        0.020154734860870945          0.4998078588478852  0.24929410467439672          C        
         C2        0.0574305007012722  0.4993879386001541  0.24505694330580782           C        
         C3        0.10039957785081222           0.4986698368725443  0.24360890024341808          C        
         C4        0.18752062291893737           0.49794288002724535           0.2506850769819566 C        
         B1        0.2336991588601989  0.49655585105939787           0.2438976895985276 B        
         N1        0.4362058627704087  0.491064157515572   0.23142993278601878           N        
         C5        0.9792612937531002  0.49977179933383725           0.25275195576918297          C        
         C6        0.9420261813839482  0.49946503108049456           0.25742338859591435          C        
         C7        0.8988721886187168  0.4983387627808362  0.25695734670209996           C        
         C8        0.81142980482904    0.49506000476381595           0.2507396932426032 C        
         B2        0.7649842757494658  0.49441120611454076           0.2568107726849918 B        
         N2        0.5622321948129188  0.49418286401296196           0.26841503175960724          N        
         C9        0.4990660794643109  0.014135663494178385          0.25577784909557205          C        
         C10       0.49971031995376536           0.05158348178392099           0.2531885561754084 C        
         C11       0.5000198907469926  0.09474027619383636           0.2529535841435909 C        
         C12       0.500830389663149   0.18275413216780667           0.2648167271112914 C        
         B3        0.5004192656985824  0.22924097511508298           0.26012322235312385          B        
         N3        0.49806483217046854           0.4304852193227799  0.2395599062118015 N        
         C13       0.4983535353579396  0.9730407179844774  0.2576136139830986  C        
         C14       0.49775691408717265           0.9353355538251219  0.2576676858973575 C        
         C15       0.49760554704484145           0.8914263164818704  0.25088898341709687          C        
         C16       0.49680025853235577           0.8021694009191735  0.22905479875671436          C        
         B4        0.49747442028151934           0.7555477230965127  0.23289690485552306          B        
         N4        0.5000447834460604  0.5546103674646636  0.26011006870832126           N        
         C17       0.12202771230133679           0.4609845279750207  0.24367668154502592          C        
         C18       0.16484466410740964           0.4608150945183676  0.24680066765716918          C        
         C19       0.2957543043622044  0.4711221503470634  0.22250357287848088           C        
         C20       0.3300643564628303  0.44603469568523696           0.2121358274639387 C        
         C21       0.3675540565929557  0.46887473951841174           0.21909632754623024          C        
         C22       0.4106254107461666  0.45566893819012605           0.22030274019689905          C        
         O1        0.25540631457604684           0.4584030796496813  0.22293847177983   O        
         H1        0.6657521026433574  0.4147458972982659  0.2528966445698767  H        
         H2        0.891172528359108   0.5639140190807577  0.25480102247470326           H        
         H3        0.8148888290609508  0.5615213531974438  0.253804705087412   H        
         C23       0.8753812335461378  0.5349354582683038  0.25645259075761623           C        
         C24       0.8326203962715703  0.5331547508851652  0.2544767654338409  C        
         C25       0.7019546305706299  0.5171726517229068  0.27641694517002485           C        
         C26       0.6666223892827764  0.5405593822290582  0.2835164648343726  C        
         C27       0.6301821087834144  0.5166192897875654  0.27753886455788385           C        
         C28       0.5872644997897349  0.529339442872221   0.2761819247465022  C        
         O2        0.741642798472725   0.5314525376856902  0.27555375720847697           O        
         H4        0.33624033470017345           0.5729953409810808  0.253846328499194  H        
         H5        0.10468637740888867           0.432526012108457   0.242316642443842  H        
         H6        0.18124831069862626           0.4316103983521989  0.2458029129223431 H        
         C29       0.5377718309384503  0.11703218309132839           0.25775141491163195          C        
         C30       0.5379527888021951  0.16033968611468963           0.26475926850343456          C        
         C31       0.521617787711702   0.2933880084903296  0.2580095536306443  C        
         C32       0.5448963498037546  0.32915503395076634           0.26045532183693976          C        
         C33       0.520584369316274   0.3639927517815375  0.2470083614823091  C        
         C34       0.5336001789551419  0.4069791951160573  0.24947528972775018           C        
         O3        0.5370381561155767  0.25515159579140245           0.27469580629587936          O        
         H7        0.5793424863668348  0.6593345151397562  0.27623171912717137           H        
         H8        0.4311822592487987  0.8851919393763773  0.2457708814428045  H        
         H9        0.43035837754393724           0.8071654124743847  0.22455592246669923          H        
         C35       0.4597836817262115  0.8680789779187962  0.2413903433007391  C        
         C36       0.4595579822669734  0.8243062825956785  0.22959955152508885           C        
         C37       0.4767342468719176  0.6918533355848253  0.24109526936427592           C        
         C38       0.45351867722953415           0.656459682688742   0.24117636959954994          C        
         C39       0.47747415126677456           0.6212452681283482  0.25306264088866803          C        
         C40       0.4647279768123231  0.5784282893381699  0.2516607147675423  C        
         O4        0.4614731542715534  0.7302720802212144  0.22562250784650031           O        
         H10       0.41788372630493736           0.3248141816861448  0.21344044561472647          H        
         H11       0.5664039193416911  0.09988674577528049           0.2550408893452131 H        
         H12       0.5668365499408341  0.17721980329484865           0.2663941293896399 H        
         C41       0.8778171109190989  0.4599465877391413  0.2523697422738917  C        
         C42       0.8348796150263862  0.458507506766429   0.24876506525787614           C        
         C43       0.7012940708808615  0.47258948639756426           0.2625698543715971 C        
         C44       0.6658405775743292  0.44884528547993546           0.2609409332508718 C        
         C45       0.6298304608297046  0.47227339734738605           0.2698702453647604 C        
         C46       0.5865041389020093  0.459184281779987   0.2658258132231156  C        
         O5        0.7404145878169115  0.4578436904945696  0.24919926513135343           O        
         H13       0.3284830830622294  0.41197174394221847           0.20419877935788855          H        
         H14       0.10624154715920543           0.5649525336793192  0.24713400496225055          H        
         H15       0.1830317685372806  0.5641365873263025  0.2529098160249256  H        
         C47       0.12289929767706498           0.5359702712041106  0.2467262612674536 C        
         C48       0.16579729305743848           0.535395926334166   0.2507260720060021 C        
         C49       0.2980471296453347  0.515978895161718   0.23917812413501324           C        
         C50       0.3343164239069926  0.5386512618852306  0.24264996377655515           C        
         C51       0.3690793922201455  0.5136003407937192  0.2313870793855197  C        
         C52       0.41235604413760757           0.5263217801234413  0.23650620668381456          C        
         O6        0.2596482632104773  0.5322573037258406  0.25287875959839257           O        
         H16       0.6667164114831984  0.5744412587720228  0.2901246144206207  H        
         H17       0.8960961053438141  0.4320482937827875  0.2541775863281276  H        
         H18       0.819260273175824   0.4289449338964412  0.2473006743326634  H        
         C53       0.4628106771458574  0.11724411957236039           0.25480888709188604          C        
         C54       0.4634013744456867  0.160432372303309   0.26069283836314466           C        
         C55       0.4766051179554819  0.29146699311701063           0.2381709151352485 C        
         C56       0.4521408263252143  0.325625082818067   0.22427004164760614           C        
         C57       0.4757478479556434  0.36263657953891415           0.2324131729786551 C        
         C58       0.4625374401473917  0.40498023921566634           0.22739468098791488          C        
         O7        0.46299801354636094           0.25149100676366853           0.23898129598816437          O        
         H19       0.41927420140198296           0.6555363875260948  0.23056839910515517          H        
         H20       0.5637708559881383  0.8866458361070955  0.25177614898121514           H        
         H21       0.5632817124009246  0.8089594036186124  0.23534999777031057           H        
         C59       0.5348538345467905  0.8690515615303996  0.24695484902306528           C        
         C60       0.5342154876503847  0.8254216914712885  0.23662248646621714           C        
         C61       0.5213217421432766  0.6932730480883196  0.25591714211931366           C        
         C62       0.5454938791856058  0.6588965550583841  0.26998734463514934           C        
         C63       0.5220900542162515  0.6222857627469176  0.26532988669742896           C        
         C64       0.5354241813893039  0.5798817228128857  0.2697974499776088  C        
         O8        0.5346614579644892  0.7328705863916719  0.25157452006515674           O        
         H22       0.579455461618157   0.33076975242574846           0.2752651468321695 H        
         H23       0.43402297824117364           0.10045593636666027           0.25373669126971604          H        
         H24       0.4345419075210973  0.1774186186162291  0.26189517809380247           H        
         N5        0.4223092528016487  0.4160205999199474  0.21554975579133234           N        
         N6        0.575390253685318   0.5688365688223415  0.27860990013282916           N        
         N7        0.5736198625788018  0.41957832969318776           0.25948986536817664          N        
         N8        0.42492022882800956           0.5660225989859043  0.24379992808992515          N        
         Zn2       0.5014026501167635  0.5070886892110195  0.7478642661371373  Zn       
         C65       0.022367538695017078          0.5002039019185678  0.7509399756198815 C        
         C66       0.05963326031436076           0.5000058256194367  0.7461459384882947 C        
         C67       0.1026724117260471  0.5003915947482492  0.7435686291445223  C        
         C68       0.19045412756319063           0.5031888585659839  0.7518576604363396 C        
         B5        0.23711925962504102           0.5042683343478461  0.7482690424331396 B        
         N9        0.438835943296404   0.5055085767979816  0.7277677531151094  N        
         C69       0.9813404293985544  0.500648162763693   0.7546956721524453  C        
         C70       0.9438903311829755  0.5012233544683717  0.7571092942762495  C        
         C71       0.9007507303653008  0.5021141857505078  0.7581024084241433  C        
         C72       0.8134269780186933  0.5035320004467431  0.7553061858181657  C        
         B6        0.7671232691871364  0.5051894331659985  0.7641262239462517  B        
         N10       0.5636218583258634  0.508722623028529   0.7658196759759862  N        
         C73       0.5004868615656235  0.026883738579166094          0.7454744433726147 C        
         C74       0.49984741691613654           0.06455358402445567           0.7457295003370695 C        
         C75       0.5000995806512856  0.10818762091247743           0.7516233422836693 C        
         C76       0.5013270273011892  0.19634175621900615           0.765048273359517  C        
         B7        0.5013873716619462  0.24301891472403442           0.7616482334572608 B        
         N11       0.5002995330288063  0.4440646363255092  0.7335119126792278  N        
         C77       0.5013725588309983  0.9856903658124524  0.7445950596142534  C        
         C78       0.5024761579662261  0.9481106886406373  0.7457075872478655  C        
         C79       0.502711990845293   0.9051172875891282  0.7458888344605933  C        
         C80       0.5009968326043118  0.8176281000039839  0.7339636474114876  C        
         B8        0.5005647730667611  0.7709921574337031  0.7361058124204144  B        
         N12       0.5021642431315153  0.5698013303195923  0.7600746226163883  N        
         C81       0.12544712015880966           0.4629898256902178  0.7370381097594106 C        
         C82       0.16842360202170203           0.4645438626910495  0.740920515058257  C        
         C83       0.3004968496953393  0.48231810737408554           0.7302994911174652 C        
         C84       0.33569366542642104           0.45891493221490737           0.7197045852663165 C        
         C85       0.37168012040059917           0.4832617158430884  0.7248796958670563 C        
         C86       0.4141125003013696  0.4703346137257451  0.7210496603487783  C        
         O9        0.26100691408916604           0.4676625642054376  0.7313737901990646 O        
         H25       0.664328645939659   0.42791527713142113           0.7501032081839621 H        
         H26       0.8960629281273605  0.5680894677200882  0.7571635867354524  H        
         H27       0.8200015285410481  0.5695850231802922  0.7577236164316156  H        
         C87       0.8790774523904898  0.5398964816636659  0.7590415207755704  C        
         C88       0.8363488115659251  0.5403954836308209  0.7580456249258178  C        
         C89       0.7046616665700919  0.5302432107177358  0.7844100246319692  C        
         C90       0.6700508109723712  0.5548129476853925  0.7926118542195966  C        
         C91       0.6325835313524028  0.5316101610761991  0.7835509491239053  C        
         C92       0.5894352120191843  0.5445544978449228  0.7802010042942533  C        
         O10       0.7450453757540574  0.5432045678604369  0.7845210556520259  O        
         H28       0.33626757885049297           0.5853679770797068  0.7562382073058536 H        
         H29       0.10899037059601842           0.43327230788406257           0.7311652361320058 H        
         H30       0.18545222527386365           0.4354420919057303  0.7358143663750468 H        
         C93       0.5383019881280439  0.13085693181449948           0.7618336594688054 C        
         C94       0.5386620061211236  0.17412290749056888           0.7688711998836056 C        
         C95       0.5228389799952401  0.30665064414925064           0.7546235383015664 C        
         C96       0.5464895012571913  0.34186571040388464           0.7547784083016877 C        
         C97       0.5227511074773511  0.37729480364148377           0.7422265540993411 C        
         C98       0.5355596062534693  0.420259655579089   0.7430711613228925  C        
         O11       0.5377482428047059  0.26814040135955813           0.7703861640523927 O        
         H31       0.581720921063496   0.6744027093417084  0.7765781028617874  H        
         H32       0.437785034117442   0.9025275721565075  0.7578291574013027  H        
         H33       0.43640418874682635           0.8251611811815183  0.748456287933641  H        
         C99       0.46554473825349524           0.8842749963502582  0.750145901841517  C        
         C100      0.46483608164753937           0.8410759416886304  0.7433743138765503 C        
         C101      0.4786652940701566  0.7069061522427358  0.7369059510894964  C        
         C102      0.45513238950356827           0.671139358764206   0.7339241579026232 C        
         C103      0.47928231578017066           0.6361055038611593  0.7488899702786912 C        
         C104      0.4665110026140998  0.5931636520510031  0.7483226965587519  C        
         O12       0.46375852809098683           0.7455559681537561  0.7225331685680014 O        
         H34       0.42042193516609183           0.339869091405433   0.7182830185366432 H        
         H35       0.5669049975421919  0.11356964093895357           0.761382994104002  H        
         H36       0.5679987677736783  0.19100589246132496           0.7739687631040222 H        
         C105      0.8778965574288481  0.46492138810000205           0.7547224042217937 C        
         C106      0.8351289734100823  0.46587603209895895           0.7530549908314734 C        
         C107      0.702608949358987   0.4854078975094537  0.7682677093089457  C        
         C108      0.6662706719760304  0.46238433539771606           0.762459698123229  C        
         C109      0.6311112766153141  0.48686450715204677           0.7708610887816243 C        
         C110      0.5876432684713965  0.4735421554741598  0.7626004759006777  C        
         O13       0.74121923932471    0.4694394683651418  0.7555609178338685  O        
         H37       0.3365282256640858  0.4252530543037034  0.7156873383435244  H        
         H38       0.10708673958311404           0.5676779925294703  0.7550560147251897 H        
         H39       0.1838246045292833  0.5699869133623937  0.7626433707919615  H        
         C111      0.12459281185069311           0.5391295599976329  0.7535464726459058 C        
         C112      0.16762043733122953           0.5403070336960091  0.758289733479823  C        
         C113      0.300857280350767   0.5270693149508721  0.7454600869978039  C        
         C114      0.3358923679598986  0.55102566642883    0.7454756322893104  C        
         C115      0.3718371358068632  0.5277163170603006  0.7346718416639159  C        
         C116      0.4146053132127349  0.5407447440175569  0.734926798470177   C        
         O14       0.26167775227473744           0.5413923719752725  0.759294253088373  O        
         H40       0.6712178959880403  0.588865679900751   0.8004719880638641  H        
         H41       0.8943497385343511  0.435897547311427   0.7557828204159895  H        
         H42       0.8181707663416451  0.43751083013363723           0.7543624298940723 H        
         C117      0.46267579874203235           0.13037613493222294           0.7504495663603379 C        
         C118      0.46346850790485494           0.17357186829349888           0.756681373264092  C        
         C119      0.4782205124569476  0.30549033306521395           0.7394179912453107 C        
         C120      0.4543220366726831  0.34002388504451475           0.7252049466832173 C        
         C121      0.47808151637777074           0.3764191099687374  0.7295611251301591 C        
         C122      0.46508103238891135           0.41889955401165513           0.7243371039871627 C        
         O15       0.4643554065178228  0.26591861833610214           0.7422477622189342 O        
         H43       0.42062811441586195           0.669924219279997   0.7194121522915703 H        
         H44       0.5677289215304322  0.8979980823347145  0.7340668998549987  H        
         H45       0.5664141435780479  0.8209446170998129  0.7269237396035902  H        
         C123      0.5392744732850119  0.8819529057751838  0.7379717322460543  C        
         C124      0.5381998218432424  0.8388125063132489  0.7322702772502925  C        
         C125      0.5234792319341783  0.7082524242393966  0.7549330590423209  C        
         C126      0.5476684622163809  0.6738341272970155  0.7681227529618408  C        
         C127      0.524151494600079   0.6372817032911606  0.7636156639508604  C        
         C128      0.5374996507818415  0.5950651458246439  0.7704472123381844  C        
         O16       0.5375646150680866  0.7482210879899223  0.7554243870427528  O        
         H46       0.5808502480143648  0.342387257246915   0.7664287667130205  H        
         H47       0.4336598736418157  0.11291296493966159           0.7453565014903227 H        
         H48       0.4343029329088696  0.19005979335702372           0.7547467754463243 H        
         N13       0.42546010406104356           0.43064383327400846           0.7173230903557841 N        
         N14       0.5778022564083621  0.5840338109637312  0.7831363453421689  N        
         N15       0.5754900250827405  0.4334065179091039  0.7536819080293681  N        
         N16       0.42676657251216593           0.5803712958248008  0.7400857556104626 N
_cell_angle_alpha                       115.33502023168184
_cell_angle_beta                        112.45616275804072
_cell_angle_gamma                       89.6033698268224
_cell_length_a                          32.598195624637
_cell_length_b                          32.606005255133475
_cell_length_c                          8.010507315701519
loop_
  _symmetry_equiv_pos_as_xyz
         'x, y, z' 
_symmetry_int_tables_number             1
_symmetry_space_group_name_H-M          'P 1'