
##########################################################################
#               Crystallographic Information Format file
#               Produced by PyCifRW module
#
#  This is a CIF file.  CIF has been adopted by the International
#  Union of Crystallography as the standard for data archiving and
#  transmission.
#
#  For information on this file format, follow the CIF links at
#  http://www.iucr.org
##########################################################################

data_0

loop_
  _atom_site_label
  _atom_site_fract_x
  _atom_site_fract_y
  _atom_site_fract_z
  _atom_site_type_symbol
         Al1       0.9938809769267578  0.9984818976919684  0.5023467146354973  Al       
         Al2       0.00538835124145054           0.33260271144605164           0.1669326942707263 Al       
         H1        0.040577696682647504          0.4391737775620638  0.1670316311462524 H        
         H2        0.8508323134118637  0.4979957244477499  0.18451971777792409           H        
         H3        0.9409338979359637  0.43737094595311476           0.2754419996837501 H        
         H4        0.0720305799074894  0.49916194800965574           0.3234632253720485 H        
         H5        0.9110232050840014  0.6218779807411348  0.36263372975080455           H        
         H6        0.19416245334740356           0.5749128328979188  0.33007032275771775          H        
         H7        0.10244500633832178           0.6255328766631971  0.2553794841032837 H        
         H8        0.8334036226387057  0.5773037518080892  0.23530793982453366           H        
         H9        0.9134085589366177  0.7067726644678194  0.2960016719751221  H        
         H10       0.18089915628468933           0.754973131428545   0.3246417094960766 H        
         H11       0.08445046743953383           0.7075366990553702  0.4056895966781749 H        
         H12       0.8019378567295908  0.754510716191226   0.42028119894860416           H        
         H13       0.04444704481847971           0.8922129565745753  0.5033842960884481 H        
         H14       0.9112921034699447  0.8298598240423968  0.48941620941077063           H        
         H15       0.9682016068442181  0.8931202983381462  0.39547208311735715           H        
         H16       0.16304286068647222           0.8346632021873942  0.35405953900434134          H        
         H17       0.06868315065950781           0.22516887819902687           0.061359571977861106         H        
         H18       0.9365150719009264  0.17792704099801038           0.9993519534829788 H        
         H19       0.9697818780262661  0.3346281653338364  0.06136432689260193           H        
         H20       0.15744961483509368           0.3183282162408584  0.002767363844279762         H        
         H21       0.905157813320606   0.24909076414143588           0.87541564894953   H        
         H22       0.17450687383473262           0.2683323621180481  0.9234311739875751 H        
         H23       0.09665388045708201           0.14077531263328155           0.8772318883107115 H        
         H24       0.8133787062273841  0.17271428547671563           0.9243024400862256 H        
         H25       0.9147625843360695  0.0972012221770591  0.7927856227870503  H        
         H26       0.19692871144366464           0.08239993135758453           0.7457813585914559 H        
         H27       0.08658257186267225           0.20688061449400647           0.7933863831045969 H        
         H28       0.8188524171276853  0.17828950582117795           0.7452624634504881 H        
         H29       0.022914686180042262          0.10584454084313039           0.6075213188088232 H        
         H30       0.8315262650230831  0.14803366468591236           0.665865382237417  H        
         H31       0.9458228737057083  0.9978336265135621  0.6085462175907218  H        
         H32       0.08202785613682995           0.012589803823971124          0.6708657508731133 H        
         H33       0.9201046835137471  0.3371383749181404  0.278108175361784   H        
         H34       0.17989886744591055           0.30224053008454754           0.29081272281714626          H        
         H35       0.0891530480533878  0.22040593549088763           0.16179496125687717          H        
         H36       0.8276893027046304  0.20819537604073923           0.1969024146978447 H        
         H37       0.10000076972440429           0.12791356156126044           0.2543412928075082 H        
         H38       0.9510471259769363  0.1393136870710833  0.20645578571686163           H        
         H39       0.901577689152351   0.24590473787764724           0.37189062892517294          H        
         H40       0.05183757029477598           0.293641293223527   0.3601645127686769 H        
         H41       0.9206609265862153  0.1939567333149828  0.40445386215928303           H        
         H42       0.16911846988585477           0.17057207825757142           0.4323383806285451 H        
         H43       0.0629001924872641  0.09928759856082577           0.30954145719249226          H        
         H44       0.8184979432562423  0.06982099208427668           0.3316939116768978 H        
         H45       0.04259294404767825           0.00021870498963472151        0.39769651374571746          H        
         H46       0.8243664077614234  0.0240771240825719  0.3651564692880416  H        
         H47       0.9444145972899117  0.10374793057343633           0.5015187050131614 H        
         H48       0.1611961887612725  0.13714579221436787           0.4783561205945093 H        
         C1        0.4935655532894669  0.040310360652135606          0.4610436353818186 C        
         C2        0.5031561877365924  0.9158149072772491  0.4596379039009369  C        
         C3        0.4853776894932375  0.041306467787942454          0.5848790764119073 C        
         C4        0.4949140682032729  0.4150692547192785  0.20774750348687132           C        
         C5        0.5160440327955164  0.29295875136633587           0.08459176291613524          C        
         C6        0.5050112700871019  0.290751796558938   0.20797618150097474           C        
         C7        0.5026230582638     0.4734601368864515  0.2345975008778968  C        
         C8        0.28543971270516794           0.502451045740277   0.21950223880466832          C        
         C9        0.29222312197218303           0.5583205148891972  0.2462246778988551 C        
         C10       0.5121438512958776  0.5849999924100584  0.2884431135683327  C        
         C11       0.7338081479670325  0.5568511969889512  0.30289155485430835           C        
         C12       0.7322221549018485  0.5007043630231768  0.2750792753304663  C        
         C13       0.5078543116328286  0.6413640304796603  0.31677531015597166           C        
         C14       0.49827669861876916           0.6894735427881269  0.340912674451049  C        
         C15       0.49311482511880067           0.7458402163199125  0.3693525343826708 C        
         C16       0.7175565982653552  0.7732933668326207  0.3543684659980056  C        
         C17       0.7218701078715687  0.8291697801496765  0.38387494310480386           C        
         C18       0.49788516543952666           0.8573927870932958  0.4276974515825759 C        
         C19       0.26455894548373526           0.8293710080645592  0.4404016172797575 C        
         C20       0.26543444070955213           0.7732391573401578  0.4118040693247638 C        
         C21       0.5069417381678498  0.26709738599571947           0.026343983376181677         C        
         C22       0.2765034518751378  0.22681694427418153           0.9987141714069188 C        
         C23       0.27386942230687145           0.19983495808169557           0.9426630716553858 C        
         C24       0.4955025005299825  0.21489663254281385           0.9150124233520391 C        
         C25       0.715712109595353   0.2570343831985845  0.9421161252139016  C        
         C26       0.7234479362108449  0.2829326985609489  0.9978802708608208  C        
         C27       0.4988184302062931  0.18698720141707575           0.8587290581930643 C        
         C28       0.5045846906299523  0.16249939096660357           0.8106875896423429 C        
         C29       0.5068188864181271  0.13356077636334138           0.7544202090864781 C        
         C30       0.7328751485642412  0.09082152604832586           0.7271303143124903 C        
         C31       0.7296450412812785  0.061539649235376394          0.6710935869740796 C        
         C32       0.49426418146458395           0.0738774966170102  0.6431389004414416 C        
         C33       0.2726700681616845  0.11811575742717055           0.6712390171528615 C        
         C34       0.2810018092232278  0.14825015287474008           0.7269593130049363 C        
         C35       0.5044854175670946  0.2606880067108664  0.23807129729613866           C        
         C36       0.7197645416558609  0.27591784851769857           0.28085685042967223          C        
         C37       0.7160542944733815  0.24740830452117554           0.30849256325346314          C        
         C38       0.49999137570241814           0.20567377524293848           0.2945711992269529 C        
         C39       0.2866490046237484  0.19117387304751574           0.2524767859724868 C        
         C40       0.28714292187659574           0.21815370097541092           0.22330440656861233          C        
         C41       0.4974896231135653  0.17805166786102894           0.32320215048981155          C        
         C42       0.495618522743856   0.154427781291885   0.3478660886953165  C        
         C43       0.49380019931093416           0.12636572863186005           0.37623514329248975          C        
         C44       0.7123737020151477  0.14097656360984312           0.4183432187715371 C        
         C45       0.7149972105471254  0.11275996739126647           0.446313718377073  C        
         C46       0.4933826768765367  0.069996715228981   0.4318346035139227  C        
         C47       0.2716335598198939  0.05583433466548419           0.38921349191644833          C        
         C48       0.2744769934968079  0.0842216418810328  0.36142973863751765           C        
         N1        0.0653471486958321  0.47833679174356675           0.18062105708757728          N        
         N2        0.9662423390124665  0.47632342607494027           0.2882512135665198 N        
         N3        0.950409423942628   0.5820371718725796  0.3434836331058838  N        
         N4        0.07614785108387886           0.5858496372159263  0.23263001618588416          N        
         N5        0.9395365400243656  0.746537355975101   0.313381091465005   N        
         N6        0.04380263744541292           0.747337502922284   0.4266280883220956 N        
         N7        0.0251547733066422  0.8531220532748917  0.4777485641583632  N        
         N8        0.9467340850282554  0.8540112186810614  0.3697596985832235  N        
         N9        0.042556824679179525          0.21306026797179806           0.022622776187091267         N        
         N10       0.9436845390732657  0.321775496481117   0.022423426596914264         N        
         N11       0.9317259712259928  0.27126670897716765           0.9150942845870285 N        
         N12       0.05710525586328538           0.1592992774461061  0.9170007255514944 N        
         N13       0.9550384600645744  0.07612011338289804           0.7530332054893806 N        
         N14       0.06031893277289586           0.18944919386287035           0.7536783164250151 N        
         N15       0.04723549462872807           0.13211634287761276           0.6463804185721598 N        
         N16       0.9680830406370188  0.023978346920271676          0.6474157929295408 N        
         N17       0.9379886200066628  0.3168621718551602  0.2979314476327785  N        
         N18       0.06987411985399844           0.2008452453384351  0.1823208552729705 N        
         N19       0.05545711799350265           0.1544542825918426  0.24227776478069415          N        
         N20       0.9461896443459187  0.2578794247036053  0.34530900311881046           N        
         N21       0.9279000988999329  0.1810789286129808  0.4310453651452984  N        
         N22       0.05893688802608023           0.07193338104791618           0.32149219505963367          N        
         N23       0.052441098257102206          0.016322120324136602          0.37388037941263425          N        
         N24       0.9339138722055774  0.12784539269624576           0.48573523026312615          N        
         O1        0.7193298165638619  0.006947747022974418          0.5601890682691976 O        
         O2        0.7224764211343698  0.04804542764339718           0.4940379252675829 O        
         O3        0.7375440258751379  0.9411782309939116  0.45287995163122463           O        
         O4        0.25006815720343395           0.04790070854309472           0.5596399884658363 O        
         O5        0.26815521526826336           0.9405165970620952  0.4937160676444825 O        
         O6        0.2647770377636513  0.007141082984021306          0.45304788488207837          O        
         O7        0.7458172576290779  0.28281939947605494           0.17612885063124628          O        
         O8        0.7245343419143255  0.38967117484862734           0.21663133729440373          O        
         O9        0.7474856773747037  0.324891286342545   0.1097583182833505  O        
         O10       0.264349671580863   0.32268490993747967           0.21605483998823768          O        
         O11       0.28681789307787353           0.2834447610958416  0.10958303688703451          O        
         O12       0.264088886606701   0.390186334712199   0.17558355384378366           O
_cell_angle_alpha                       119.74003690424867
_cell_angle_beta                        89.22221859582267
_cell_angle_gamma                       89.27124082251119
_cell_length_a                          4.1129240867224
_cell_length_b                          29.19935849444712
_cell_length_c                          29.23958821247984
loop_
  _symmetry_equiv_pos_as_xyz
         'x, y, z' 
_symmetry_int_tables_number             1
_symmetry_space_group_name_H-M          'P 1'