
##########################################################################
#               Crystallographic Information Format file
#               Produced by PyCifRW module
#
#  This is a CIF file.  CIF has been adopted by the International
#  Union of Crystallography as the standard for data archiving and
#  transmission.
#
#  For information on this file format, follow the CIF links at
#  http://www.iucr.org
##########################################################################

data_0

loop_
  _atom_site_label
  _atom_site_fract_x
  _atom_site_fract_y
  _atom_site_fract_z
  _atom_site_type_symbol
         Cu1       0.8886908200424517  0.8231839663089376  0.8151169567458281  Cu       
         Cu2       0.8209593378070802  0.8818363691585775  0.7966429763184824  Cu       
         Cu3       0.8020486938595577  0.8091186758859857  0.8552226955369804  Cu       
         Cu4       0.11621447267980427           0.8068140924362409  0.18168694253997356          Cu       
         Cu5       0.2001022171801661  0.8500366526064135  0.19292972926115365           Cu       
         Cu6       0.18565177879304293           0.7856254320737623  0.12489332162675942          Cu       
         Cu7       0.1318327963242008  0.19529683848575663           0.8087845923890952 Cu       
         Cu8       0.21489627786180657           0.1484194191562247  0.7985254121822012 Cu       
         Cu9       0.1946420595739975  0.20799418960630514           0.8715728642403586 Cu       
         Cu10      0.8664042901012077  0.18298924083915297           0.195085481456091  Cu       
         Cu11      0.8003253126769284  0.12303681301307699           0.2144818139534005 Cu       
         Cu12      0.7841048767400128  0.19287957545047354           0.14980772599585082          Cu       
         H1        0.960936917846516   0.8569378942994166  0.7610511522430538  H        
         H2        0.8596211360346013  0.9263594302319004  0.7203686308853036  H        
         H3        0.8191678868675143  0.7259811667743553  0.8988777156498452  H        
         H4        0.9394329460743878  0.7589009768746191  0.8586495434326872  H        
         H5        0.7597934680038245  0.9436539064670426  0.8311553207446539  H        
         H6        0.724117853579341   0.8418810648337087  0.8995309851883869  H        
         H7        0.06196575334396312           0.8528712684158398  0.24196749019987893          H        
         H8        0.17969739756625805           0.8990625031323634  0.27163365892847413          H        
         H9        0.14790166074404637           0.7079023244544398  0.0834515310112839 H        
         H10       0.04555766257594701           0.7521313822300223  0.15022906052845877          H        
         H11       0.2759271041309087  0.8950414804967185  0.15766927845312695           H        
         H12       0.2474624679891284  0.8180323901442076  0.0623449816161395  H        
         H13       0.08090033940236271           0.1564872581527979  0.7440518115224487 H        
         H14       0.19709368502531943           0.10306066123085947           0.7173817886083663 H        
         H15       0.15368095237076876           0.280993064356655   0.9199205652808099 H        
         H16       0.05879432247935065           0.24878833796013153           0.8404525914173682 H        
         H17       0.2873268078975474  0.10015294864979707           0.8345964479221155 H        
         H18       0.25026272375461694           0.16968518387292528           0.9337325572967391 H        
         H19       0.9372889763624025  0.15360752370439965           0.25042663549684363          H        
         H20       0.8389040605748241  0.07898832793954175           0.290768246885562  H        
         H21       0.8053573879422414  0.2712247580561507  0.09792938459744467           H        
         H22       0.920997547671023   0.24281201450262307           0.14925168270733674          H        
         H23       0.7435155404682946  0.058910147119253374          0.18049310552135292          H        
         H24       0.7100648993136149  0.15627541610305473           0.10592087574389322          H        
         H25       0.523260200573759   0.04753714270351554           0.03505174156469439          H        
         H26       0.5284572208447048  0.9435735073536025  0.9651851671979017  H        
         H27       0.4729236926626153  0.025822580840640815          0.9441393593893376 H        
         H28       0.4696419388545109  0.9638262384233035  0.05338792802890097           H        
         H29       0.6389317754361996  0.9974822111511702  0.003296105434531947         H        
         H30       0.35815907111524126           0.9939197082283118  0.9965452315250989 H        
         H31       0.08901734976528868           0.029773361536397543          0.5206159741408536 H        
         H32       0.9704427265025454  0.9777478487384935  0.5283585216041463  H        
         H33       0.08583214346703562           0.977749997365471   0.46773085685615484          H        
         H34       0.9667379934994944  0.02872797997000543           0.4767558630031598 H        
         H35       0.03536160606313187           0.0038661980575630697         0.6325949692753223 H        
         H36       0.01804222963772864           0.0023768276894513647         0.36431205784620807          H        
         H37       0.030760895220757836          0.5193326412048045  0.02773744632713242          H        
         H38       0.9151509080666616  0.5234599741234547  0.9715555860370976  H        
         H39       0.9119222655393354  0.4677056442103425  0.022223432235880504         H        
         H40       0.03322834259603084           0.469371605697984   0.9748764268423902 H        
         H41       0.9749757994354759  0.6307134122849347  0.00255512064057182           H        
         H42       0.9731325451551107  0.3591300040306688  0.9962090554160449  H        
         H43       0.9090819338796147  0.9399798373721524  0.6578082997954852  H        
         H44       0.0023569690155158564         0.9520113390220154  0.653463622387718  H        
         H45       0.9815899515698447  0.9131285635187333  0.7065925207106134  H        
         H46       0.9362902424039252  0.9704935998330901  0.5938798073359763  H        
         H47       0.13805392055697752           0.9295261774372753  0.3358780493713504 H        
         H48       0.04656427037901541           0.9484923141529827  0.3470732521744066 H        
         H49       0.05813349363276662           0.9078907115204323  0.2965224241505925 H        
         H50       0.11760776461669847           0.9674268210558831  0.4005650464400796 H        
         H51       0.1548037096710229  0.07604162734870396           0.6494509131515835 H        
         H52       0.062323847396141975          0.061020769181057165          0.6430237900070312 H        
         H53       0.07620256342957434           0.10174807472177799           0.6909345212954436 H        
         H54       0.12959418676650375           0.037916348527521876          0.5849954014759062 H        
         H55       0.890848820599649   0.06568905926016547           0.35344302241272135          H        
         H56       0.9845481624943444  0.05644313343220299           0.35004734309228325          H        
         H57       0.9603368775116944  0.09617382621199115           0.3010549751327038 H        
         H58       0.9241224526876703  0.03410332933545007           0.4152274291839203 H        
         H59       0.8595476641635552  0.6582064741189955  0.9271083924929512  H        
         H60       0.9502870188569807  0.6480101803618998  0.9477689048920047  H        
         H61       0.9401218467453848  0.7003148029816142  0.9095160393035079  H        
         H62       0.8799694596084818  0.5906822490285047  0.9628864556476305  H        
         H63       0.8498401268085237  0.33701610006386484           0.06690614837567839          H        
         H64       0.9424679356798795  0.3434818169767506  0.05073306336948434           H        
         H65       0.9274253072423887  0.29439747482984985           0.09207823185330374          H        
         H66       0.8750769432961973  0.4017319624892597  0.02932596935219374           H        
         H67       0.09776007650641177           0.6462047864852654  0.06992126387379323          H        
         H68       0.0048842041663024706         0.6459980652004076  0.056294009672623456         H        
         H69       0.02556495943910946           0.6975968164910631  0.09531243176281999          H        
         H70       0.06918744665605145           0.5833643531852847  0.0374183686930587 H        
         H71       0.10259832239400597           0.3438402865188577  0.93487330807397   H        
         H72       0.008653873699549015          0.34389021736585157           0.9429242525917042 H        
         H73       0.03322249028889962           0.2954589324811543  0.9007654813015844 H        
         H74       0.07130514941901428           0.4051845760649645  0.9676142463940163 H        
         H75       0.6596177661187932  0.8874762416011696  0.9189985820429579  H        
         H76       0.658447792178883   0.9755323366724044  0.9422960242019134  H        
         H77       0.7098273971343277  0.9599092859941711  0.8950831424522802  H        
         H78       0.5958636383712695  0.9097971614853013  0.9549883489289144  H        
         H79       0.34696061480786994           0.0754285970051688  0.8824019746669725 H        
         H80       0.3436669916663547  0.05548124674594233           0.9707645919267649 H        
         H81       0.2960978837346475  0.10427052542304667           0.9521229104433759 H        
         H82       0.4074355775670219  0.036140382359656414          0.9078162419434647 H        
         H83       0.6485841434842937  0.10870395999329778           0.08634101827038206          H        
         H84       0.65164133989974    0.019988552691723525          0.0658091803776811 H        
         H85       0.6987461212601171  0.038375503535617375          0.11511185846974874          H        
         H86       0.5886773361777542  0.08397740862720542           0.04796173429744674          H        
         H87       0.3402212930538546  0.9150841963863711  0.11177798081472601           H        
         H88       0.34262398817330636           0.9319975419800027  0.022805669697702244         H        
         H89       0.2942457087261868  0.8830742504723351  0.041674292580331784         H        
         H90       0.402022862979851   0.9532616878675816  0.08734043654639868           H        
         C1        0.9319736116719917  0.8709364019087996  0.7559058536814423  C        
         C2        0.9217166373539767  0.8993517117789663  0.7277458552294401  C        
         C3        0.8800732155375963  0.906110763521829   0.7346050259425054  C        
         C4        0.845822724054135   0.7389917930320288  0.8853602368154908  C        
         C5        0.8869010777449311  0.7278918300807647  0.887902240886099   C        
         C6        0.9072953654980453  0.7562679551162078  0.865009802430026   C        
         C7        0.7557635586303223  0.9149142428740353  0.8443748338568426  C        
         C8        0.7290859156738353  0.9032479254505036  0.874587804679723   C        
         C9        0.7369796981368953  0.8627982853075177  0.8789539840220028  C        
         C10       0.09373640237135658           0.8604130908298628  0.24415397288781218          C        
         C11       0.11256614767197007           0.885894310874678   0.27038623444147464          C        
         C12       0.15393708217193866           0.8838305028416937  0.25974809689569556          C        
         C13       0.12720717762830364           0.7229720173802288  0.10299483420087208          C        
         C14       0.08536016345051321           0.7170834487538377  0.10945495576051478          C        
         C15       0.07476254378875513           0.74603942978593    0.13678953712667977          C        
         C16       0.26493951048077274           0.8724280227661457  0.13852475625312397          C        
         C17       0.2743830746723522  0.8656334203991507  0.09907776896205418           C        
         C18       0.2498145830462442  0.833389985921896   0.08969561092311427           C        
         C19       0.11223590198327167           0.14695639079586    0.7427243559453632 C        
         C20       0.13097452597078055           0.1207324202008461  0.7166127781457067 C        
         C21       0.17167418333717652           0.1198663128503149  0.7286075770477826 C        
         C22       0.13507954647502213           0.2692028146177325  0.8970993891329848 C        
         C23       0.09421930588839285           0.2769937142475014  0.8883220046761168 C        
         C24       0.08641287012841732           0.252148243013457   0.8567655424438774 C        
         C25       0.2745139789759219  0.12121804680821198           0.8547707982891276 C        
         C26       0.2804479125613568  0.12489382502779203           0.8950552758591881 C        
         C27       0.25503385668578293           0.15645323515482715           0.9054827758904066 C        
         C28       0.9089656734090514  0.1382719895320813  0.25562674163284366           C        
         C29       0.8997557165428391  0.10870360922667542           0.28318510447133205          C        
         C30       0.8585280548211909  0.10046015709293744           0.27678612323218355          C        
         C31       0.8304764956708336  0.2597946569655519  0.11452745265225749           C        
         C32       0.8718014771856699  0.27033575766384993           0.11335308742476753          C        
         C33       0.8896102542706364  0.24477001321885963           0.1405795516069243 C        
         C34       0.739643936278678   0.08686705994087625           0.16574546218900585          C        
         C35       0.7148873028233389  0.0963629986998438  0.13401140687048432           C        
         C36       0.722000875294515   0.1367341113852682  0.12798207704778608           C        
         C37       0.5410773013093443  0.025205526573401124          0.02010275050135847          C        
         C38       0.5211461824373261  0.9954795126876638  0.9999927954776276  C        
         C39       0.5439772429285387  0.9664648257433973  0.981084722069289   C        
         C40       0.5867220428268894  0.9673691286246153  0.9811155379664831  C        
         C41       0.6059836669617449  0.9968839024571846  0.002392212135090289         C        
         C42       0.5837163546477395  0.025731566171880747          0.02246181305816072          C        
         C43       0.4759788619318337  0.9948139939395028  0.9988414333114435  C        
         C44       0.4555358184367655  0.01183125095472672           0.9675099643307635 C        
         C45       0.4128080858868214  0.012992688797687986          0.9669405611778062 C        
         C46       0.3911231804252123  0.994090288027362   0.9971471453728707  C        
         C47       0.410988981430358   0.9755637638445969  0.028198972172479735         C        
         C48       0.45366225312318353           0.9774149315311816  0.029291103060819813         C        
         C49       0.06427382105886884           0.017759163576629013          0.5382365792723474 C        
         C50       0.029555367419930794          0.003553905620627159          0.5198509506720347 C        
         C51       0.9969614211890798  0.9895632559461024  0.5426355350885739  C        
         C52       0.999060753413001   0.9882763461085913  0.5834756025365955  C        
         C53       0.033654679655636836          0.0037666410221353073         0.6010493678781982 C        
         C54       0.06608855647622114           0.019465097209264863          0.5791086117452019 C        
         C55       0.02674364665704878           0.0035154332039788786         0.4768525232710028 C        
         C56       0.05894356734885347           0.9894584687023169  0.4537430494943788 C        
         C57       0.055627682674145584          0.987456544182432   0.4130045232539221 C        
         C58       0.020530892069967326          0.0027520841923211496         0.3957993967379369 C        
         C59       0.9883111353874702  0.018087250995035224          0.41807510726544017          C        
         C60       0.9913518167622364  0.01704789516128513           0.4588758527295037 C        
         C61       0.006038610972364387          0.5364110192671929  0.015505573947016632         C        
         C62       0.9727824827416148  0.516755898762174   0.9997274205454687  C        
         C63       0.9403131498486754  0.5386847606954474  0.9849183725142066  C        
         C64       0.9413816492986471  0.5800554851501593  0.9844446207595519  C        
         C65       0.9743235653616945  0.5988098682325625  0.0018355347197092193        C        
         C66       0.006673592006246367          0.5776646369273042  0.017922889222792136         C        
         C67       0.9724842119109957  0.47324233303464064           0.9984430910564654 C        
         C68       0.938195634774662   0.45197374538501095           0.010809071240853315         C        
         C69       0.9385964941286982  0.41059610436381444           0.011640618490965406         C        
         C70       0.9729182721524653  0.3910574526156786  0.9967316762942985  C        
         C71       0.007145371092110729          0.41158758897442926           0.9829112637221757 C        
         C72       0.006965746804006672          0.452856826715746   0.9852594037078765 C        
         C73       0.9495677180240593  0.9168490441937341  0.6999033316908926  C        
         C74       0.9405218458704081  0.9367673776876371  0.6666678719568325  C        
         C75       0.9716352734522669  0.9537277663918006  0.6422143875221767  C        
         C76       0.966321046100511   0.9706614880160049  0.60672058787883    C        
         C77       0.09102326563685766           0.9081392193002272  0.2996171346716264 C        
         C78       0.10565977007915794           0.9287031584902208  0.3301803012699495 C        
         C79       0.0782464236511351  0.9492553996689724  0.35574226067791337           C        
         C80       0.0868595462718571  0.9680103571046436  0.38938505288315367           C        
         C81       0.1090760986278953  0.09991666678945137           0.6872029237174292 C        
         C82       0.12256838695377929           0.07857996527146643           0.6562808979695047 C        
         C83       0.09357550515599757           0.05888484297630112           0.6324048167247753 C        
         C84       0.0996684540841195  0.03888178478403773           0.5987663132191458 C        
         C85       0.9286824678297338  0.09133954731498381           0.3093958210631447 C        
         C86       0.9216880906243281  0.0701956883182397  0.3425551573463596  C        
         C87       0.9547653002885256  0.05348640349981756           0.3639531542812001 C        
         C88       0.9528751189881299  0.035350101949556546          0.3992704711357254 C        
         C89       0.9072412920525421  0.6968931605799344  0.9087751061883695  C        
         C90       0.8919015853490708  0.6645559381542632  0.9272668897077156  C        
         C91       0.9187961717210978  0.6382808975933938  0.9473118869435595  C        
         C92       0.9102691896066584  0.6031767306048745  0.9646272169503857  C        
         C93       0.8946647554514616  0.298686418360572   0.0907373393035251  C        
         C94       0.8819196438153434  0.32976169357961527           0.06893932763410475          C        
         C95       0.9112795576271745  0.3540015614803212  0.048917001391658256         C        
         C96       0.9051854574742174  0.3885380919559948  0.02979861329098013           C        
         C97       0.05753960054806847           0.6898113402589479  0.0921644425444221 C        
         C98       0.06645098648409818           0.6562013951602481  0.07262009036919345          C        
         C99       0.03525608288562067           0.6333123291031706  0.05489594513106242          C        
         C100      0.03979001906054358           0.5980168047542275  0.03712693316144073          C        
         C101      0.06478216136096955           0.30261883219337854           0.9066041590391677 C        
         C102      0.0716770813159015  0.33428564603299893           0.9294760636508662 C        
         C103      0.038829525425227815          0.3562727367844979  0.9466263286463833 C        
         C104      0.04184554100429101           0.39090778328706766           0.965751809054293  C        
         C105      0.7022589199387236  0.9287409909959896  0.8964709903854163  C        
         C106      0.6693389081925402  0.9180692328917194  0.9183322133242328  C        
         C107      0.6460309271514095  0.9459189259594366  0.9406536035600037  C        
         C108      0.609850296215256   0.9385125142959362  0.9585979247582579  C        
         C109      0.3046224421457494  0.10173426665991271           0.9214716187675642 C        
         C110      0.3362473126280305  0.0776085750609516  0.9124404656970578  C        
         C111      0.35704800580370044           0.055029817504992654          0.9415801300290154 C        
         C112      0.3921898430477428  0.034788533464688964          0.9361319923717629 C        
         C113      0.6904437593306657  0.06928213086570288           0.11220137644531462          C        
         C114      0.6590183224086812  0.07837848728234599           0.08854153180867681          C        
         C115      0.6383650066412189  0.04935509691204328           0.06597508799452578          C        
         C116      0.6037308203189024  0.05551801284368854           0.045851007173036855         C        
         C117      0.30061857465369657           0.8871023207073767  0.07243827837443377          C        
         C118      0.3315664810236709  0.9116142267850269  0.08151537848541722           C        
         C119      0.35413212837078517           0.9332724162719237  0.05236101890561301          C        
         C120      0.38865446943144294           0.9539199690791029  0.058513639824929395         C        
         N1        0.8667964920382879  0.8833940008518609  0.7645221014772908  N        
         N2        0.8990602699512855  0.8613522697372777  0.777576808509743   N        
         N3        0.8806734682728813  0.7820347464571477  0.8499670575429416  N        
         N4        0.8423291726469788  0.7714496231606375  0.8627103422775045  N        
         N5        0.7661544723649261  0.8514190736673564  0.8534045602549448  N        
         N6        0.7776027127616598  0.8839049681603168  0.8316362939579868  N        
         N7        0.15905672119486391           0.8590128874699752  0.22955085017719928          N        
         N8        0.12152979127391209           0.844353303246755   0.2200220190355846 N        
         N9        0.10765694500214926           0.7672403308204943  0.14603615655109664          N        
         N10       0.14029449036727892           0.7531059071372553  0.12485199168927776          N        
         N11       0.22769284673061724           0.8217975560156998  0.12103025747122217          N        
         N12       0.23686225648798293           0.8463526319677694  0.15144994423881625          N        
         N13       0.1764782732060567  0.14373531805516696           0.7595016636331825 N        
         N14       0.13941297272484862           0.16069466961313847           0.7680424277620388 N        
         N15       0.11995153809056269           0.23147419264002406           0.8473503157830293 N        
         N16       0.15019883316898913           0.24181963612196294           0.8725874444637591 N        
         N17       0.23567093277043294           0.17055851004346495           0.8739922049513685 N        
         N18       0.24756573056658313           0.14837877327447818           0.8423406177823928 N        
         N19       0.8445341153686702  0.12339232394256745           0.24762231854714614          N        
         N20       0.8759058624200492  0.1470701820160011  0.2347124913495286  N        
         N21       0.861328918511797   0.22113897640227878           0.15679685350748251          N        
         N22       0.8244574644895958  0.23024124322620995           0.1405062529815748 N        
         N23       0.7490067280759592  0.15009901455483618           0.15398435018107465          N        
         N24       0.7597197935564707  0.11899092321274397           0.17776324480481148          N
_cell_angle_alpha                       89.56149837382709
_cell_angle_beta                        89.21019792157539
_cell_angle_gamma                       89.90481225491229
_cell_length_a                          32.994473149565
_cell_length_b                          34.053764065816154
_cell_length_c                          34.39476818676755
loop_
  _symmetry_equiv_pos_as_xyz
         'x, y, z' 
_symmetry_int_tables_number             1
_symmetry_space_group_name_H-M          'P 1'