
##########################################################################
#               Crystallographic Information Format file
#               Produced by PyCifRW module
#
#  This is a CIF file.  CIF has been adopted by the International
#  Union of Crystallography as the standard for data archiving and
#  transmission.
#
#  For information on this file format, follow the CIF links at
#  http://www.iucr.org
##########################################################################

data_0

loop_
  _atom_site_label
  _atom_site_fract_x
  _atom_site_fract_y
  _atom_site_fract_z
  _atom_site_type_symbol
         C1        0.9740888891711883  0.5154179862885919  0.2590244847497957  C        
         C2        0.48683134892719737           0.4542830964424041  0.29953050423742955          C        
         C3        0.5386342745157704  0.0167771140367256  0.3962645691507287  C        
         C4        0.025888821273502602          0.48457969003416124           0.24094668332068228          C        
         C5        0.5131727249577119  0.5457857401688598  0.20040483048283764           C        
         C6        0.4613715132033075  0.9832651971752376  0.10365220943289742           C        
         C7        0.9557635031086829  0.4709670830555608  0.26314048136532775           C        
         C8        0.5274874250892149  0.4831198276313035  0.25512239710615814           C        
         C9        0.5165799453053189  0.045437429350121086          0.23648301146147224          C        
         C10       0.04421909070286844           0.5290294378676446  0.23688681612372314          C        
         C11       0.4725122798669033  0.5169505861563124  0.2447699666629038  C        
         C12       0.4834198688390422  0.9546028015134521  0.26346025619232677           C        
         C13       0.9830311088202005  0.45646942139344027           0.25463502850885344          C        
         C14       0.5397758241699177  0.5292152989138743  0.2058394815610281  C        
         C15       0.4774658994068956  0.02720285341431886           0.09178113325828777          C        
         C16       0.01694487051630695           0.5435271531637607  0.24534134150804496          C        
         C17       0.4602247969367512  0.47085330610379295           0.29406362128070107          C        
         C18       0.5225366124088322  0.9728385232423844  0.40814808893297366           C        
         C19       0.9105150131866421  0.4423292251192613  0.27705549332382584           C        
         C20       0.5545672585339563  0.4646505238941861  0.26044671870723113           C        
         C21       0.534963079130077   0.09168608230583702           0.22866986010221038          C        
         C22       0.08947515420265781           0.5576597467124654  0.2230327441956985 C        
         C23       0.4454289746780646  0.5354146664530038  0.2394460934326171  C        
         C24       0.4650334894129589  0.908350283656924   0.2713178537960286  C        
         N1        0.8891716639703051  0.45535757279767747           0.31043927670128774          N        
         N2        0.5433121626826594  0.42211739676122423           0.31738156646595256          N        
         N3        0.5731795835145008  0.1073842518811627  0.35567457460535473           N        
         N4        0.11080439874130475           0.5446557899157589  0.1895286878221082 N        
         N5        0.4566979689500396  0.5779514192573908  0.18259054210776374           N        
         N6        0.4268149542883193  0.8926517079281949  0.14432119873108382           N        
         C25       0.8222921105100454  0.4465325609120409  0.33001767607304705           C        
         C26       0.5492389116722276  0.3624229810906374  0.30776235431897814           C        
         C27       0.6369258958274558  0.1752070525443793  0.3886016096835229  C        
         C28       0.1777036493481726  0.5534912657669215  0.1699999466628308  C        
         C29       0.45076048158859844           0.637636433947145   0.19224212919211395          C        
         C30       0.36306192602983356           0.824834495047288   0.11137405684349092          C        
         C31       0.8463643090431819  0.4270077841377548  0.33102682057960203           C        
         C32       0.570605291770959   0.40488800930132784           0.33013855479914084          C        
         C33       0.5900831422659055  0.15113933786128336           0.35233834627383165          C        
         C34       0.153617451139681   0.5730074091727165  0.16896149004420566           C        
         C35       0.42940121134706516           0.5951761868588765  0.16984518623738734          C        
         C36       0.4099073083083313  0.8488944706643435  0.14767055153987368           C        
         C37       0.8263789188448749  0.3809563310300359  0.35715852782561636           C        
         C38       0.6179514768098613  0.4262777331515912  0.37365350151579296           C        
         C39       0.5633209613206005  0.1713796159360824  0.32455118385448833           C        
         C40       0.17359781218806544           0.6190617904350689  0.14280931399874566          C        
         C41       0.38205320055050473           0.5737819933755287  0.1263148046204542 C        
         C42       0.4366652820178104  0.82864612512998    0.17548529576107436           C        
         C43       0.783113160516069   0.3563751152845279  0.37027536810869915           C        
         C44       0.6425794831314632  0.40646029603158235           0.3860717651515212 C        
         C45       0.5831299367370593  0.21436584851666066           0.33414016000780633          C        
         C46       0.21685616149653023           0.6436483638759853  0.12968413310706756          C        
         C47       0.35742128319725347           0.5935897625065468  0.1139558068167379 C        
         C48       0.4168522345871933  0.7856634400812814  0.16588757581133876           C        
         C49       0.7586395228851107  0.3763875839300251  0.36244175283601826           C        
         C50       0.6209376845612748  0.36468597852960644           0.35722583396638413          C        
         C51       0.6295932020137592  0.23884963172374907           0.36324566821623383          C        
         C52       0.24134400275920753           0.6236447637946146  0.13755046863903184          C        
         C53       0.3790592313267216  0.6353623864651426  0.14280354702238807           C        
         C54       0.3703865340223952  0.761187188499613   0.13674045825367084           C        
         C55       0.7791404180946941  0.4217399449274537  0.3458532899373208  C        
         C56       0.5739748653996288  0.3426957305532475  0.32048875747842276           C        
         C57       0.6561385199909444  0.21875627909388495           0.3887974566675353 C        
         C58       0.22084745159496424           0.5782898047845195  0.1541495330207737 C        
         C59       0.426021082089059   0.6573576779603605  0.1795349710747321  C        
         C60       0.34384142734641504           0.7812839907494915  0.11116109622125277          C        
         N7        0.6902601888573893  0.36970773281989056           0.3689807066466322 N        
         N8        0.6255100811067711  0.3019434701362929  0.3612401005332014  N        
         N9        0.6941719134685829  0.30742606970005587           0.37341815584993543          N        
         N10       0.30972979338296064           0.6303384946189942  0.13100017512292975          N        
         N11       0.37447438935807537           0.6981025836194762  0.138740222329347  N        
         N12       0.3058142506595248  0.6926042247388012  0.12666714883508115           N        
         C61       0.7121828462906414  0.34986217441082457           0.3705006395083029 C        
         C62       0.6469424732099743  0.3443265639475791  0.36416348132544224           C        
         C63       0.6506636469314553  0.284897739016712   0.3672323251842229  C        
         C64       0.2878019821095258  0.6501723320485437  0.12952293319891284           C        
         C65       0.35304755957374523           0.6557185456191958  0.1358368456032661 C        
         C66       0.34931683071925734           0.7151386102927384  0.13278683534146543          C        
         Br1       0.9619427489884516  0.39601952280600006           0.2642526836564508 Br       
         Br2       0.5948850143030747  0.5717203848421578  0.14432184372239384           Br       
         Br3       0.4445355702450611  0.06309102571109917           0.8640143925859691 Br       
         Br4       0.03803314646614091           0.6039777936700691  0.2357234736002229 Br       
         Br5       0.40510848747771205           0.42835042156940295           0.3555179925502014 Br       
         Br6       0.5554688514096169  0.9369503302140488  0.6359130955752001  Br       
         H1        0.9534844256870161  0.5266694383307571  0.2677584478613625  H        
         H2        0.4774376841770141  0.418783340475371   0.33863550763405836           H        
         H3        0.5684450864220385  0.030390946064630518          0.5100081072071024 H        
         H4        0.04649316634656113           0.47332752644669895           0.2322286816697971 H        
         H5        0.5225709011163916  0.5812859197808341  0.16132078358682317           H        
         H6        0.4315604213286066  0.9696510808841468  0.9899037573869455  H        
         H7        0.8963398413047262  0.4099177483195959  0.2574575395415265  H        
         H8        0.5840151312287445  0.48867528777008307           0.21080081511637622          H        
         H9        0.5153414456479141  0.11205678126156245           0.10827929249024713          H        
         H10       0.10363872657552094           0.5900803738621728  0.24258980169807162          H        
         H11       0.4159822378512986  0.5113874313645522  0.28908818689560833           H        
         H12       0.4846602776485432  0.8879831096652148  0.3916795294596524  H        
         H13       0.8386792876753616  0.4816894254082463  0.3161923639365085  H        
         H14       0.5129222277816521  0.34589341763266834           0.27898984419017575          H        
         H15       0.657281155918166   0.15911264487541618           0.41187863556056487          H        
         H16       0.16132491560860784           0.5183287894201765  0.1838803686931637 H        
         H17       0.48707919017256796           0.6541702431298604  0.22104071526095365          H        
         H18       0.34271054141384955           0.8409323418827519  0.0880953334342017 H        
         H19       0.8447120034913903  0.36451098580764746           0.36617504586535154          H        
         H20       0.6352785265801898  0.4576753988699632  0.4047068609345911  H        
         H21       0.5272924735682687  0.15257577068963557           0.300815970104687  H        
         H22       0.15525035524133984           0.6354998794265903  0.13375421802686313          H        
         H23       0.3647259802097222  0.5423842109122794  0.09527287049541232           H        
         H24       0.4726949702784257  0.8474498917640905  0.19921152173138545           H        
         H25       0.7671492686569402  0.32111305997967315           0.3862815531819032 H        
         H26       0.6790830144495209  0.4225292201386205  0.4211936409308212  H        
         H27       0.5631090916118895  0.2298301600687601  0.31905222267118455           H        
         H28       0.2328122653032317  0.6789154358777211  0.11363013553123764           H        
         H29       0.32091738693476557           0.5775212338447016  0.07882664806849195          H        
         H30       0.4368686326038652  0.7701942318128041  0.18095846356288264           H        
         H31       0.7607677750314084  0.436760677390743   0.3468809533663254  H        
         H32       0.5576852145072685  0.310168488919463   0.30129613998478444           H        
         H33       0.692039264079981   0.23791213580070694           0.41114132307183443          H        
         H34       0.23923152988807947           0.5632798001071804  0.15312173116721595          H        
         H35       0.44230628019732166           0.6898879878373931  0.19869810703912916          H        
         H36       0.30794055026107264           0.7621324961359175  0.08880297339243569          H        
         C67       0.9741112332383765  0.5154203013359521  0.7590532926793939  C        
         C68       0.4868270926087031  0.45421445875917216           0.7995917992285939 C        
         C69       0.5386282708877321  0.016734861914614013          0.896346304087366  C        
         C70       0.025911258690901655          0.4845820729628752  0.7409757705557687 C        
         C71       0.5131687306030143  0.5457172639394797  0.70046864448178    C        
         C72       0.4613666452583134  0.9832230196107775  0.6037327130908784  C        
         C73       0.9557809629893512  0.4709704602003349  0.7631130285510416  C        
         C74       0.5274876672511252  0.48304961844815425           0.7552280339728463 C        
         C75       0.5165801368049533  0.045397346943274935          0.7365394178623392 C        
         C76       0.044236509070320326          0.5290328727633182  0.7368589170771768 C        
         C77       0.47251274633146495           0.5168803451608787  0.7448781403901011 C        
         C78       0.48341979703696275           0.9545630645966432  0.7635180176893461 C        
         C79       0.9830554443957765  0.45647307055598646           0.7546591570854062 C        
         C80       0.5397748888030647  0.5291464025371482  0.7059353525635097  C        
         C81       0.4774625334831089  0.027161158405854317          0.5918508987212548 C        
         C82       0.01696914310761258           0.5435308025875737  0.7453651933314988 C        
         C83       0.46022423749878744           0.4707846418633414  0.7941616018592625 C        
         C84       0.5225340343616013  0.9727971358480186  0.9082149333713438  C        
         C85       0.910524758551135   0.4423404535809297  0.7769668931177757  C        
         C86       0.5545717813047668  0.4645857944553944  0.7605555172519705  C        
         C87       0.5349658795373412  0.09164908885735851           0.728685701327423  C        
         C88       0.08948497498034588           0.5576710668841073  0.722944685246688  C        
         C89       0.44543222502441276           0.5353495999137535  0.7395487014595925 C        
         C90       0.4650365250080686  0.9083130052007652  0.7713442598019656  C        
         N13       0.8891957426089919  0.45534409380308943           0.8104718797302325 N        
         N14       0.543301447143614   0.42204810029115075           0.8174076244058237 N        
         N15       0.5731858175027915  0.10734921095279272           0.8556772369593002 N        
         N16       0.11082862097608295           0.5446423039211564  0.689561732626677  N        
         N17       0.4566881334112874  0.5778824732574088  0.6826200201137121  N        
         N18       0.4268202654330509  0.8926160174484425  0.6443180992784074  N        
         C91       0.8222964027305956  0.44650876739324796           0.8300002603347366 C        
         C92       0.5492395782543875  0.3623636379623869  0.8077569780906858  C        
         C93       0.6369377777305117  0.17516493855165394           0.8886268430461853 C        
         C94       0.17770801532704852           0.5534675287987874  0.6699827325212481 C        
         C95       0.4507612564832222  0.6375771755700917  0.6922374558196216  C        
         C96       0.3630740290714405  0.8247929846516036  0.6113972806397258  C        
         C97       0.8463825804287165  0.4269925455019949  0.8310385786973761  C        
         C98       0.5705985497152731  0.4048239843378689  0.8301539893724909  C        
         C99       0.5900929258586437  0.15110531539988278           0.85233187943853   C        
         C100      0.15363580919193048           0.5729921881188739  0.6689735616364556 C        
         C101      0.42939486964815393           0.5951123948562249  0.6698611314926546 C        
         C102      0.40991723789621637           0.8488606587950163  0.6476620684021973 C        
         C103      0.8264021577389364  0.38093825951903015           0.8571902281731592 C        
         C104      0.6179466269924052  0.4262180249870821  0.873684677152098   C        
         C105      0.5633348263537626  0.17135368869086223           0.8245157897852223 C        
         C106      0.1736210078338931  0.6190437451910116  0.6428411617705486  C        
         C107      0.3820485378647046  0.573722442765306   0.6263457922220751  C        
         C108      0.43667931949547195           0.8286202152016878  0.6754506703067106 C        
         C109      0.7831437943162625  0.35635164170098077           0.8703156187119268 C        
         C110      0.6425786418551362  0.40641039091811615           0.8860430840396246 C        
         C111      0.5831479841003107  0.21433680439266234           0.8341123248050095 C        
         C112      0.21688693370218262           0.6436250093361623  0.6297247996385341 C        
         C113      0.3574205203754955  0.5935395299379035  0.6139295348241192  C        
         C114      0.4168698210037614  0.7856338327930339  0.6658594508407274  C        
         C115      0.7586558291038156  0.37635510984725795           0.8624494264016732 C        
         C116      0.620940773483205   0.36463767372305206           0.8571965698297094 C        
         C117      0.6296136324455222  0.2388131555438205  0.8632597699796491  C        
         C118      0.24136031889194384           0.6236123471611564  0.6375579675430643 C        
         C119      0.37906212094647596           0.6353137705746125  0.6427751909713224 C        
         C120      0.37040704000379454           0.7611507835391831  0.636755478269446  C        
         C121      0.7791527213989677  0.42171026365926745           0.8458507110524706 C        
         C122      0.573979087169503   0.34264221572186565           0.8204654550652166 C        
         C123      0.656158273492423   0.2187158328498947  0.8888397952557217  C        
         C124      0.22085981652820547           0.5782602483266266  0.6541465953879306 C        
         C125      0.42602510010395755           0.6573041123628657  0.6795127520445542 C        
         C126      0.34386080166537886           0.7812433810239716  0.6112021166986789 C        
         N19       0.6902706333035734  0.36966206849719746           0.8690006914567776 N        
         N20       0.6255251942324282  0.30189691767554333           0.8612603560785035 N        
         N21       0.6941857992598689  0.30739568191022476           0.8733317472691822 N        
         N22       0.30974008010968007           0.6302929577757396  0.6310189583312262 N        
         N23       0.3744895216349951  0.6980560618305409  0.6387593483947711  N        
         N24       0.30582830162180363           0.6925736276624281  0.626583289325957  N        
         C127      0.7121976955873055  0.34982748765784033           0.8704766346641318 C        
         C128      0.6469524931118604  0.34428126371861567           0.8641637386499368 C        
         C129      0.6506833331049886  0.2848614657408745  0.8672138880798299  C        
         C130      0.2878168462039136  0.6501377287831142  0.6294990923529511  C        
         C131      0.35305745445471365           0.6556733203825947  0.635836113339256  C        
         C132      0.3493366927393109  0.7151022348984155  0.6327700929817207  C        
         Br7       0.9619670002379905  0.3960222297719286  0.7642765514122661  Br       
         Br8       0.5948915559513815  0.5716496016391406  0.644481013971229   Br       
         Br9       0.4445307242977296  0.06304950142408076           0.36408874826917964          Br       
         Br10      0.038057283999428024          0.6039804919134496  0.7357472221094865 Br       
         Br11      0.4051149527551827  0.4282798955798523  0.8556777290418653  Br       
         Br12      0.5554643913295919  0.9369089560319454  0.13598441108604287           Br       
         H37       0.9535068566991061  0.526672628879519   0.7677709640319683  H        
         H38       0.47742891753412603           0.4187139628904817  0.8386794968544216 H        
         H39       0.5684395592445569  0.030348853351600497          0.010095246315885431         H        
         H40       0.046515659520776714          0.47333073607153364           0.7322415166090372 H        
         H41       0.5225623582982212  0.5812167722384223  0.6613638458878001  H        
         H42       0.43155461694537783           0.9696091084567089  0.4899899944282562 H        
         H43       0.8963613679602891  0.4099195945656681  0.7574104256396338  H        
         H44       0.5840174277506429  0.48861276609871085           0.7109101076404989 H        
         H45       0.5153401785035577  0.11201731009006613           0.608318099179527  H        
         H46       0.10366018875042349           0.590082354721773   0.7425420017157408 H        
         H47       0.4159847347992147  0.5113241822122445  0.7892004531969025  H        
         H48       0.48465903845479824           0.8879436547319303  0.8917167926046583 H        
         H49       0.8386750526634176  0.48167113079577134           0.8161200755133703 H        
         H50       0.5129208510748083  0.3458297320362305  0.7789584834080688  H        
         H51       0.6572896608079933  0.15906780324452932           0.9119047305785543 H        
         H52       0.16132076052326125           0.5183105082284003  0.6838086834824822 H        
         H53       0.4870777946973499  0.6541068490393048  0.7210093790118949  H        
         H54       0.3427185768540924  0.8408869866232018  0.5881220306487701  H        
         H55       0.8447495866181187  0.36450011020981926           0.8662450511118416 H        
         H56       0.6352740209619178  0.45761564192200166           0.9047268469860729 H        
         H57       0.5273048282713872  0.15254989787561601           0.8007893998746829 H        
         H58       0.15528801511157672           0.6354891589338109  0.633823856176983  H        
         H59       0.3647213255638498  0.5423246103910065  0.5952921323971847  H        
         H60       0.47270699836193214           0.8474241246419815  0.6991844437416656 H        
         H61       0.7671875789628075  0.32108455863206836           0.8863687631954918 H        
         H62       0.6790825722012962  0.422478766766003   0.9211727901628541  H        
         H63       0.5631311913045249  0.22980579641851642           0.8190420688413563 H        
         H64       0.23285082835998575           0.6788869534428036  0.6137184381014987 H        
         H65       0.32091674404022297           0.577470759257267   0.5788063059937165 H        
         H66       0.436890821197167   0.7701703296186151  0.6809463211224428  H        
         H67       0.7607684447625044  0.43672011456838217           0.8468788683500235 H        
         H68       0.5576938751150049  0.31011225262367337           0.8013021298320776 H        
         H69       0.6920595394765949  0.2378677542105427  0.9111967989614297  H        
         H70       0.23923218226223372           0.5632393433095887  0.6531185443628111 H        
         H71       0.4423147790688492  0.6898317059408469  0.698703202596021   H        
         H72       0.30796080388994873           0.7620878039215272  0.5888577424130952 H
_cell_angle_alpha                       60.45510831428722
_cell_angle_beta                        120.04645942563376
_cell_angle_gamma                       121.91013433661946
_cell_length_a                          36.86322633433
_cell_length_b                          37.2875964322112
_cell_length_c                          8.164559417507226
loop_
  _symmetry_equiv_pos_as_xyz
         'x, y, z' 
_symmetry_int_tables_number             1
_symmetry_space_group_name_H-M          'P 1'