
##########################################################################
#               Crystallographic Information Format file
#               Produced by PyCifRW module
#
#  This is a CIF file.  CIF has been adopted by the International
#  Union of Crystallography as the standard for data archiving and
#  transmission.
#
#  For information on this file format, follow the CIF links at
#  http://www.iucr.org
##########################################################################

data_0

loop_
  _atom_site_label
  _atom_site_fract_x
  _atom_site_fract_y
  _atom_site_fract_z
  _atom_site_type_symbol
         Al1       0.9209422912418348  0.001454922284450561          0.5108153439066176 Al       
         Al2       0.0763725233295779  0.3323147630389465  0.14904062405735533           Al       
         H1        0.3615765985843236  0.5849216587523062  0.2365469690103649  H        
         H2        0.06375642547414828           0.6079756387697008  0.36289341290262156          H        
         H3        0.011775097017897584          0.7274689833855461  0.3027724421815029 H        
         H4        0.6367108681799326  0.7512971923933972  0.43827520078790316           H        
         H5        0.7377666776560265  0.6750850066188716  0.3852601627151654  H        
         H6        0.3373997674058323  0.6632053317175014  0.28739888558056276           H        
         H7        0.5883615245178304  0.14089500618517098           0.9074356165886295 H        
         H8        0.9716830724296582  0.24507246939034336           0.9031034052867913 H        
         H9        0.7005215920324143  0.05580443022479293           0.7562103541888578 H        
         H10       0.13887339004307606           0.15842328379567625           0.7338117056803055 H        
         H11       0.959241298838635   0.1512106081560333  0.8183750992415701  H        
         H12       0.6788533798328424  0.14749067921642217           0.8316773066099584 H        
         H13       0.48256895795485805           0.27661196236287783           0.3473177275828745 H        
         H14       0.9758606728749626  0.17214334278180946           0.23439359115000635          H        
         H15       0.24869614656092046           0.1916646194177375  0.435059077030016  H        
         H16       0.8312105594573352  0.09108617508438306           0.3381929242833646 H        
         H17       0.029116484751484872          0.1872719239669986  0.3344233482341198 H        
         H18       0.3016841793970667  0.18411583121368996           0.34236769765949326          H        
         C1        0.5014870671288889  0.05171810498340529           0.47284833895460515          C        
         C2        0.2191414255431541  0.9055594238390076  0.46773719776273326           C        
         C3        0.5295768354902781  0.0434806158781802  0.5905622747519282  C        
         C4        0.7697980771434559  0.42772455727521413           0.1936003173974478 C        
         C5        0.4579525617389227  0.2846189023788062  0.06856401547708248           C        
         C6        0.5076350950111795  0.2870319276552316  0.1908376332522912  C        
         C7        0.8172029510635253  0.49500733478473324           0.2320501528938497 C        
         C8        0.609414903949754   0.5203262845339479  0.21736751423033912           C        
         C9        0.5296406486997352  0.5697399690849727  0.25246592579309074           C        
         C10       0.7170115443687447  0.6066212645052007  0.30635031307513505           C        
         C11       0.9589845656720576  0.5881075123446685  0.3212814011689746  C        
         C12       0.01188368169023346           0.532715583750073   0.2847708510193605 C        
         C13       0.6419780492759322  0.6576468834681662  0.34366097565536946           C        
         C14       0.416414669873137   0.6784886418630878  0.3288552134258617  C        
         C15       0.10871138351697399           0.7484733761941756  0.3448564320141922 C        
         C16       0.32687038315721134           0.7290483659644827  0.36454879672791324          C        
         C17       0.46480463087533147           0.7635114457019957  0.41969839110805357          C        
         C18       0.376539245269973   0.8129139051033507  0.45296699097444315           C        
         C19       0.18249417300753037           0.8370700644124526  0.4340979266258234 C        
         C20       0.040774261308279984          0.8015427233895833  0.3792207740595764 C        
         C21       0.3784992741053763  0.2495071246142103  0.00879209558438995           C        
         C22       0.4945719658143694  0.20164906632356122           0.9800309320154061 C        
         C23       0.47052269503377525           0.17527850605048145           0.9258057541884225 C        
         C24       0.27508371833039447           0.18875116508821882           0.8960501510140771 C        
         C25       0.13345867970063305           0.23296728613337075           0.9234656663926624 C        
         C26       0.19994131087176262           0.26461666256326105           0.9785435468941792 C        
         C27       0.21355692037826154           0.15775517257133276           0.8384537441445576 C        
         C28       0.42615694873526827           0.13808894982628012           0.8086321799298637 C        
         C29       0.5915263267411162  0.07014782030377215           0.7318359907464252 C        
         C30       0.40895158464723785           0.10816787402982292           0.7519769358991809 C        
         C31       0.24816726737463496           0.1223655389950256  0.7176174569558839 C        
         C32       0.3650487377543675  0.11064554677630488           0.6714172307199695 C        
         C33       0.5295042373163403  0.06887275347561447           0.6479634169184355 C        
         C34       0.6553141511075136  0.04981549632838381           0.6808915504552713 C        
         C35       0.5426318218923978  0.2610395627721894  0.22619793676936473           C        
         C36       0.44952306826764593           0.2797873370060529  0.27572592690221975          C        
         C37       0.5554357060723017  0.2606565762043006  0.30956613318551784           C        
         C38       0.7426400018779288  0.2230329283648264  0.2965775325972427  C        
         C39       0.8657155806333112  0.20815803779953    0.24934780751097427           C        
         C40       0.7125057691169698  0.21951879386621342           0.21342591772595484          C        
         C41       0.7847668439670589  0.19536130764830756           0.3288013643172177 C        
         C42       0.541080107981992   0.17591663045419836           0.3503008533522986 C        
         C43       0.3766101959887156  0.1583723047132763  0.42366251891024553           C        
         C44       0.5391927657507342  0.14550710579727286           0.3814069412893455 C        
         C45       0.6984993174587083  0.1028991990152894  0.3702808540772849  C        
         C46       0.6909993480821804  0.07329370452327628           0.3997677785730358 C        
         C47       0.5456909257243474  0.0878774562821837  0.44384872555256216           C        
         C48       0.41225011218892155           0.13422499154176049           0.4564201086147053 C        
         N1        0.1523282586932584  0.5058551735638765  0.31321621393093974           N        
         N2        0.48994250187470445           0.4989728999887037  0.16101482674246945          N        
         N3        0.49420677843559285           0.8401208461128935  0.5100619162829289 N        
         N4        0.8164161373523273  0.8191087548094284  0.35475455801927425           N        
         N5        0.12370463381878122           0.32231883299394437           0.004860094090338666         N        
         N6        0.6286191400150584  0.17380091482934107           0.0063510630910620786        N        
         N7        0.3509942329722642  0.1539009874105754  0.6520182828339198  N        
         N8        0.6965936391086796  0.9870837763023931  0.6583672028194217  N        
         N9        0.6977652883839     0.1766889575768663  0.1570160803484845  N        
         N10       0.41305073110557355           0.34269863006619333           0.3067849852122442 N        
         N11       0.7672576197107106  0.015242444843439744          0.37555366880850527          N        
         N12       0.31286674342779397           0.16127285422254464           0.5071805574480014 N        
         O1        0.7030627919909098  0.009585100546858153          0.5692426734104944 O        
         O2        0.771567965884722   0.06169046474207593           0.5025811439025315 O        
         O3        0.4984648117766391  0.9376616515986714  0.46214191422599005           O        
         O4        0.3231518674511032  0.05540961495142297           0.5664222054690355 O        
         O5        0.019694541512968834          0.925592978665488   0.4961358752210543 O        
         O6        0.1901563188280894  0.014565748318893266          0.46261961371793875          O        
         O7        0.6939295352215671  0.27563055726111424           0.15666535986349947          O        
         O8        0.9736683386414231  0.40327208749207655           0.20062801921502196          O        
         O9        0.7728290477749827  0.3212747495571728  0.09040638210392936           O        
         O10       0.33099640879744635           0.3214298153826932  0.1993151129178108 O        
         O11       0.20473698015474218           0.2736528723502192  0.08945162098062054          O        
         O12       0.486073125045621   0.3986807689405418  0.15834946157836588           O        
         O13       0.3460554443466215  0.4778292177310021  0.29586772952599993           O        
         O14       0.04133972868557434           0.5140270347535522  0.35348565417116173          O        
         O15       0.18184364989509344           0.4678594506764915  0.13866952413992928          O        
         O16       0.72867416525239    0.5184053289615613  0.1424587604395547  O        
         O17       0.366077152121205   0.8778771164809019  0.5384361567220125  O        
         O18       0.6930409885152744  0.8211479546039964  0.5249601195112764  O        
         O19       0.7354236275558699  0.8638082106583488  0.38365071695393754           O        
         O20       0.6961327182091345  0.7844715005942915  0.30612042828058456           O        
         O21       0.3357413444643411  0.3652080010234532  0.046113980782729415         O        
         O22       0.87530519616932    0.3245971974271057  0.9821704585012161  O        
         O23       0.516916650941171   0.17762960573539477           0.04548352466195734          O        
         O24       0.8178164805214541  0.14531310271767417           0.9852299540105383 O        
         O25       0.08419762248166265           0.14673654724364335           0.6261355209890688 O        
         O26       0.637707403402576   0.19702962308108338           0.6673389446844403 O        
         O27       0.91752486047792    0.9757247870183362  0.6337675791899917  O        
         O28       0.47186920791481085           0.9502488948575911  0.6665879504617587 O        
         O29       0.948596143699467   0.18403637259185118           0.13727898695470103          O        
         O30       0.40854847649409715           0.13367386678005266           0.13549552721615515          O        
         O31       0.17857770683321533           0.3542271497676164  0.2919511599249647 O        
         O32       0.6565155330684006  0.3797087807591359  0.34616064216120723           O        
         O33       0.5695520917973897  0.9718208749056141  0.3794733004817647  O        
         O34       0.9968309779874657  0.013090086174985012          0.3505983689300964 O        
         O35       0.4567415274690947  0.1566183488817302  0.5420893241838041  O        
         O36       0.1177750074458168  0.19020880986103517           0.5118430258023685 O
_cell_angle_alpha                       117.7570801494584
_cell_angle_beta                        92.88576738637164
_cell_angle_gamma                       107.97326886478662
_cell_length_a                          4.2003037637797
_cell_length_b                          25.899066594745584
_cell_length_c                          29.347535286500793
loop_
  _symmetry_equiv_pos_as_xyz
         'x, y, z' 
_symmetry_int_tables_number             1
_symmetry_space_group_name_H-M          'P 1'