
##########################################################################
#               Crystallographic Information Format file
#               Produced by PyCifRW module
#
#  This is a CIF file.  CIF has been adopted by the International
#  Union of Crystallography as the standard for data archiving and
#  transmission.
#
#  For information on this file format, follow the CIF links at
#  http://www.iucr.org
##########################################################################

data_0

loop_
  _atom_site_label
  _atom_site_fract_x
  _atom_site_fract_y
  _atom_site_fract_z
  _atom_site_type_symbol
         C1        0.055675204647454096          0.9231251388006374  0.8864085250041429 C        
         C2        0.10428549782141312           0.9573948470875909  0.7395210810208052 C        
         H1        0.1016048845137708  0.03655208069703859           0.7057375625964618 H        
         C3        0.15802800675774054           0.8926226445360385  0.6352716677235405 C        
         H2        0.1952519743051079  0.9216234459072797  0.523557402969183   H        
         C4        0.1637950680663334  0.7907505346827333  0.6788221998172084  C        
         C5        0.11760678779241611           0.7547526049194748  0.8247057981997458 C        
         H3        0.12479874155554374           0.6755337861407874  0.8564331146615686 H        
         C6        0.0633928999951042  0.820762967163495   0.927079548855527   C        
         H4        0.027595997248839682          0.791204878618331   0.03968236237464205          H        
         N1        0.22383963927426553           0.7203037204664503  0.5840102541711867 N        
         O1        0.27547754149745407           0.6533154253369768  0.6606564156075778 O        
         C7        0.944324758390373   0.07687417685717782           0.886408505481651  C        
         C8        0.8957144871032336  0.042604500552067305          0.7395209086862113 C        
         H5        0.898394836961205   0.963447372006563   0.705737477213756   H        
         C9        0.8419719976618429  0.10737689431886506           0.6352714946123901 C        
         H6        0.8047479540084777  0.07837611788833121           0.5235573713211538 H        
         C10       0.8362050711111788  0.2092490223407731  0.6788228220378942  C        
         C11       0.882393578530217   0.24524672396506475           0.8247062413202109 C        
         H7        0.8752014437417457  0.32446562325418427           0.856433886869664  H        
         C12       0.9366072791128749  0.179236249744131   0.9270795421111997  C        
         H8        0.9724042633127958  0.20879419894813114           0.03968237221400753          H        
         N2        0.7761608052931162  0.2796960179181499  0.5840107179420821  N        
         O2        0.7245227880437117  0.3466843259740722  0.6606564367800022  O        
         C13       0.9231252089484643  0.944324487956277   0.11359298575002069           C        
         C14       0.9573945158345037  0.8957140765330608  0.2604799014559947  C        
         H9        0.03655188640056196           0.8983949707132961  0.29426357016628374          H        
         C15       0.8926220135685036  0.841972771853828   0.3647304121323247  C        
         H10       0.9216226942069514  0.8047489410671482  0.47644340841212324           H        
         C16       0.7907498861091612  0.8362048741731255  0.32117758363246746           C        
         C17       0.7547530680670435  0.8823937797229394  0.17529520480008975           C        
         H11       0.6755341231459276  0.8752015723935072  0.14356708838932528           H        
         C18       0.8207624845327279  0.9366075639976816  0.07292078357282548           C        
         H12       0.7912040077638545  0.9724047060815311  0.9603182445960623  H        
         N3        0.7203033211964446  0.776160793683728   0.4159905152149642  N        
         O3        0.6533154462262345  0.7245225638274935  0.3393440989724751  O        
         C19       0.07687495088343974           0.05567479040429074           0.11359349877343032          C        
         C20       0.0426055574736925  0.1042853157576246  0.260480111418349   C        
         H13       0.9634481686197341  0.10160448637249976           0.2942638977669183 H        
         C21       0.10737809289674752           0.15802676950809733           0.364730328405021  C        
         H14       0.07837743868697888           0.19525042488714997           0.47644333330374666          H        
         C22       0.20925017875911067           0.16379485350941422           0.3211778517518944 C        
         C23       0.2452470144648576  0.11760586770643838           0.1752955489022771 C        
         H15       0.32446577982499686           0.12479790375778325           0.1435671508188012 H        
         C24       0.17923755390765608           0.06339182135997541           0.07292140611708388          C        
         H16       0.20879592132824806           0.027594368893046284          0.9603190907798066 H        
         N4        0.2796966627812403  0.22383901261151448           0.41599058451646465          N        
         O4        0.3466844100631951  0.2754772187790581  0.3393441338222514  O        
         C25       0.5556924716102932  0.5768018852490229  0.8865609202197462  C        
         C26       0.6042528747348912  0.5424943059071954  0.7396597575370224  C        
         H17       0.6012915938367519  0.4633713398590096  0.7056399722507163  H        
         C27       0.6582424314112576  0.607224221812216   0.6357421422141023  C        
         H18       0.6953159929958089  0.5782477291602456  0.5238593985905458  H        
         C28       0.6643712696734972  0.7089630380509264  0.679954471894691   C        
         C29       0.6180739055228489  0.7449915316227926  0.8256294369079727  C        
         H19       0.6254570613889582  0.8241719059957582  0.8574394606718884  H        
         C30       0.5634814875221322  0.6790908604404008  0.9275451295597466  C        
         H20       0.5274901909253128  0.7086392450940455  0.03997711360010644           H        
         N5        0.7249988641990084  0.7793987091829087  0.5862055028028716  N        
         O5        0.7777708979095705  0.8448658139514306  0.6643886046843471  O        
         C31       0.4443073536371169  0.42319797267604226           0.886560711182895  C        
         C32       0.39574706294126843           0.4575055985338775  0.7396594759112334 C        
         H21       0.3987081086767712  0.5366286330519541  0.7056400213354178  H        
         C33       0.3417573045568382  0.39277560219846647           0.6357422818630947 C        
         H22       0.30468390052637345           0.42175221783951056           0.5238595840384027 H        
         C34       0.335628866780176   0.2910367882121662  0.6799543183202997  C        
         C35       0.38192595277781416           0.25500846579650854           0.8256296561228004 C        
         H23       0.37454283653271075           0.17582819926761153           0.8574397403918214 H        
         C36       0.43651864253878103           0.3209090541172241  0.9275450666494269 C        
         H24       0.4725098954968481  0.2913606921196119  0.03997716824295527           H        
         N6        0.2750010876766426  0.22060126211475664           0.5862053702599231 N        
         O6        0.22222925566330337           0.15513394147034104           0.6643880895605723 O        
         C37       0.4231975308650228  0.5556925541023875  0.11343952930928233           C        
         C38       0.457504987529115   0.6042528991809574  0.2603405529471789  C        
         H25       0.5366281365206341  0.601291594562673   0.29435999712084193           H        
         C39       0.3927750654358708  0.6582420880601995  0.36425872416650246           C        
         H26       0.42175162472189887           0.6953154943429452  0.47614123498726246          H        
         C40       0.29103628594109726           0.6643714211461748  0.32004558942917954          C        
         C41       0.25500808207546394           0.6180741840388976  0.17437066897783005          C        
         H27       0.175827677058587   0.625457083152682   0.1425604203735859  H        
         C42       0.3209082185392536  0.5634809440730835  0.07245521389320478           C        
         H28       0.2913596945169508  0.5274896422115835  0.9600232795823688  H        
         N7        0.22060070501166526           0.724998500920704   0.4137954584017862 N        
         O7        0.15513377691968175           0.7777710915255696  0.33561297786286937          O        
         C43       0.5768023464966614  0.44430708934701424           0.11343965387559782          C        
         C44       0.5424951427012239  0.3957468839141144  0.260340920342282   C        
         H29       0.4633718863556808  0.3987078530515449  0.2943601054355282  H        
         C45       0.6072251486036465  0.34175761543784355           0.36425903954781824          C        
         H30       0.5782486740922853  0.3046843622340271  0.47614178023656695           H        
         C46       0.7089640512543737  0.3356285175649374  0.32004576510418287           C        
         C47       0.7449921146427908  0.3819257204814769  0.1743707020583707  C        
         H31       0.8241726855872205  0.3745429295105133  0.14256055073423585           H        
         C48       0.6790918421156247  0.436519167885962   0.07245541075534545           C        
         H32       0.7086403700914735  0.47251044749355725           0.9600234532051781 H        
         N8        0.7793996648772372  0.27500126360303007           0.41379590773708574          N        
         O8        0.8448665548677459  0.2222287901447135  0.3356132566637773  O        
         C49       5.1127265271742106e-08        0.9999997392685518  1.4499020914191605e-06       C        
         C50       0.49999986761160764           0.4999998339627035  3.6510657519467595e-07       C
_cell_angle_alpha                       90.00001074540144
_cell_angle_beta                        90.00003820658941
_cell_angle_gamma                       89.99993858820721
_cell_length_a                          13.283558884928
_cell_length_b                          13.283557982885629
_cell_length_c                          7.9343866453683045
loop_
  _symmetry_equiv_pos_as_xyz
         'x, y, z' 
_symmetry_int_tables_number             1
_symmetry_space_group_name_H-M          'P 1'